download/pglib-opf-master/api/pglib_opf_case2869_pegase__api.m
%%%%%%%%%%%%%%%%%%%%%%%%%%%%%%%%%%%%%%%%%%%%%%%%%%%%%%%%%%%%%%%%%%%%%%%%%%%
%%%%                                                                  %%%%%
%%%%    IEEE PES Power Grid Library - Optimal Power Flow - v19.05     %%%%%
%%%%          (https://github.com/power-grid-lib/pglib-opf)           %%%%%
%%%%             Benchmark Group - Active Power Increase              %%%%%
%%%%                         08 - May - 2019                          %%%%%
%%%%                                                                  %%%%%
%%%%%%%%%%%%%%%%%%%%%%%%%%%%%%%%%%%%%%%%%%%%%%%%%%%%%%%%%%%%%%%%%%%%%%%%%%%
function mpc = pglib_opf_case2869_pegase__api
mpc.version = '2';
mpc.baseMVA = 100.0;

%% bus data
%	bus_i	type	Pd	Qd	Gs	Bs	area	Vm	Va	baseKV	zone	Vmax	Vmin
mpc.bus = [
	3	 1	 166.31	 48.80	 0.0	 4.69	 0	    1.00000	    0.00000	 220.0	 5	    1.10000	    0.90000;
	4	 1	 188.79	 23.40	 0.0	 2.1	 0	    1.00000	    0.00000	 220.0	 5	    1.10000	    0.90000;
	10	 1	 147.59	 24.70	 0.0	 12.44	 0	    1.00000	    0.00000	 220.0	 5	    1.10000	    0.90000;
	15	 1	 65.72	 26.70	 0.0	 12.84	 0	    1.00000	    0.00000	 220.0	 4	    1.10000	    0.90000;
	21	 1	 177.54	 39.30	 0.0	 30.71	 0	    1.00000	    0.00000	 220.0	 5	    1.10000	    0.90000;
	22	 1	 0.0	 -0.0	 0.0	 0.85	 0	    1.00000	    0.00000	 220.0	 5	    1.10000	    0.90000;
	26	 1	 184.26	 54.80	 0.0	 110.54	 0	    1.00000	    0.00000	 380.0	 5	    1.10000	    0.90000;
	29	 1	 168.40	 49.40	 0.0	 27.65	 0	    1.00000	    0.00000	 380.0	 5	    1.10000	    0.90000;
	32	 2	 0.0	 0.0	 0.0	 0.0	 0	    1.00000	    0.00000	 220.0	 4	    1.10000	    0.90000;
	33	 2	 0.0	 0.0	 0.0	 0.0	 0	    1.00000	    0.00000	 220.0	 4	    1.10000	    0.90000;
	38	 1	 47.08	 12.80	 0.0	 13.3	 0	    1.00000	    0.00000	 220.0	 8	    1.10000	    0.90000;
	39	 2	 0.0	 0.0	 0.0	 0.0	 0	    1.00000	    0.00000	 150.0	 10	    1.10000	    0.90000;
	42	 1	 22.93	 7.90	 0.0	 26.89	 0	    1.00000	    0.00000	 380.0	 4	    1.10000	    0.90000;
	44	 1	 -0.0	 0.0	 0.0	 7.27	 0	    1.00000	    0.00000	 220.0	 5	    1.10000	    0.90000;
	51	 2	 0.0	 0.0	 0.0	 0.0	 0	    1.00000	    0.00000	 220.0	 4	    1.10000	    0.90000;
	52	 1	 140.54	 31.80	 0.0	 20.51	 0	    1.00000	    0.00000	 150.0	 8	    1.10000	    0.90000;
	53	 1	 53.58	 16.10	 0.0	 7.14	 0	    1.00000	    0.00000	 220.0	 5	    1.10000	    0.90000;
	58	 1	 0.0	 0.0	 0.0	 2.31	 0	    1.00000	    0.00000	 380.0	 5	    1.10000	    0.90000;
	59	 1	 131.28	 20.70	 0.0	 3.31	 0	    1.00000	    0.00000	 220.0	 5	    1.10000	    0.90000;
	69	 1	 69.24	 20.50	 0.0	 1.15	 0	    1.00000	    0.00000	 150.0	 8	    1.10000	    0.90000;
	71	 1	 139.10	 42.40	 0.0	 55.24	 0	    1.00000	    0.00000	 150.0	 8	    1.10000	    0.90000;
	72	 1	 6.91	 -4.60	 0.0	 5.75	 0	    1.00000	    0.00000	 220.0	 4	    1.10000	    0.90000;
	75	 1	 42.67	 6.10	 0.0	 1.17	 0	    1.00000	    0.00000	 220.0	 4	    1.10000	    0.90000;
	76	 1	 24.37	 10.70	 0.0	 14.21	 0	    1.00000	    0.00000	 220.0	 8	    1.10000	    0.90000;
	77	 1	 -0.0	 -0.0	 0.0	 0.73	 0	    1.00000	    0.00000	 220.0	 4	    1.10000	    0.90000;
	89	 1	 0.0	 0.0	 0.199111	 4.530599	 0	    1.00000	    0.00000	 380.0	 2	    1.10000	    0.90000;
	90	 1	 400.08	 115.39	 0.0	 3.95	 0	    1.00000	    0.00000	 220.0	 5	    1.10000	    0.90000;
	91	 1	 -0.0	 0.0	 0.0	 0.02	 0	    1.00000	    0.00000	 150.0	 8	    1.10000	    0.90000;
	96	 1	 -8.40	 28.66	 0.0	 3.49	 0	    1.00000	    0.00000	 220.0	 5	    1.10000	    0.90000;
	113	 1	 -0.0	 -0.0	 0.0	 6.532711	 0	    1.00000	    0.00000	 380.0	 5	    1.10000	    0.90000;
	115	 1	 0.0	 -0.0	 0.0	 4.21	 0	    1.00000	    0.00000	 220.0	 5	    1.10000	    0.90000;
	118	 1	 704.53	 -35.33	 0.0	 13.102834	 0	    1.00000	    0.00000	 380.0	 5	    1.10000	    0.90000;
	124	 2	 0.0	 0.0	 0.0	 0.0	 0	    1.00000	    0.00000	 220.0	 5	    1.10000	    0.90000;
	128	 1	 26.14	 12.70	 0.0	 0.52	 0	    1.00000	    0.00000	 220.0	 5	    1.10000	    0.90000;
	130	 1	 -0.0	 0.0	 0.135375	 47.750675	 0	    1.00000	    0.00000	 380.0	 10	    1.10000	    0.90000;
	132	 1	 0.0	 -0.0	 0.0	 21.39	 0	    1.00000	    0.00000	 380.0	 1	    1.10000	    0.90000;
	133	 1	 42.01	 12.50	 0.0	 6.28	 0	    1.00000	    0.00000	 150.0	 8	    1.10000	    0.90000;
	138	 1	 -75.38	 7.80	 0.0	 29.9	 0	    1.00000	    0.00000	 380.0	 10	    1.10000	    0.90000;
	139	 1	 -764.34	 66.91	 0.0	 33.47	 0	    1.00000	    0.00000	 380.0	 8	    1.10000	    0.90000;
	140	 1	 0.0	 0.0	 0.0	 4.14	 0	    1.00000	    0.00000	 220.0	 8	    1.10000	    0.90000;
	143	 1	 0.0	 0.0	 0.0	 0.0	 0	    1.00000	    0.00000	 150.0	 8	    1.10000	    0.90000;
	145	 1	 42.23	 5.60	 0.0	 7.64	 0	    1.00000	    0.00000	 220.0	 5	    1.10000	    0.90000;
	148	 1	 35.62	 12.00	 0.0	 6.1	 0	    1.00000	    0.00000	 220.0	 5	    1.10000	    0.90000;
	150	 2	 0.0	 0.0	 0.0	 0.0	 0	    1.00000	    0.00000	 220.0	 5	    1.10000	    0.90000;
	163	 1	 162.74	 32.73	 0.0	 8.34	 0	    1.00000	    0.00000	 220.0	 5	    1.10000	    0.90000;
	164	 1	 0.0	 -0.0	 0.0	 5.17	 0	    1.00000	    0.00000	 150.0	 8	    1.10000	    0.90000;
	171	 1	 111.02	 13.20	 0.0	 5.24	 0	    1.00000	    0.00000	 220.0	 5	    1.10000	    0.90000;
	172	 1	 123.02	 10.96	 0.0	 4.22	 0	    1.00000	    0.00000	 220.0	 4	    1.10000	    0.90000;
	174	 1	 370.50	 -17.00	 0.0	 9.91	 0	    1.00000	    0.00000	 220.0	 5	    1.10000	    0.90000;
	177	 1	 104.52	 36.20	 0.0	 16.46	 0	    1.00000	    0.00000	 220.0	 10	    1.10000	    0.90000;
	179	 2	 0.0	 0.0	 0.0	 0.0	 0	    1.00000	    0.00000	 380.0	 4	    1.10000	    0.90000;
	184	 1	 -0.0	 -0.0	 0.0	 2.42	 0	    1.00000	    0.00000	 220.0	 5	    1.10000	    0.90000;
	188	 1	 40.57	 13.90	 0.0	 3.3	 0	    1.00000	    0.00000	 220.0	 5	    1.10000	    0.90000;
	194	 2	 0.0	 0.0	 0.0	 0.0	 0	    1.00000	    0.00000	 150.0	 8	    1.10000	    0.90000;
	195	 1	 80.55	 21.55	 0.0	 8.52	 0	    1.00000	    0.00000	 220.0	 5	    1.10000	    0.90000;
	196	 1	 0.0	 -0.0	 0.0	 12.48	 0	    1.00000	    0.00000	 220.0	 5	    1.10000	    0.90000;
	198	 1	 43.77	 11.80	 0.0	 1.44	 0	    1.00000	    0.00000	 220.0	 5	    1.10000	    0.90000;
	199	 1	 95.60	 28.40	 0.0	 1.34	 0	    1.00000	    0.00000	 150.0	 8	    1.10000	    0.90000;
	201	 2	 0.0	 0.0	 0.0	 0.0	 0	    1.00000	    0.00000	 220.0	 4	    1.10000	    0.90000;
	205	 1	 50.83	 18.20	 0.0	 1.29	 0	    1.00000	    0.00000	 150.0	 8	    1.10000	    0.90000;
	207	 1	 354.62	 84.40	 0.0	 1.34	 0	    1.00000	    0.00000	 220.0	 5	    1.10000	    0.90000;
	211	 1	 82.91	 19.20	 0.0	 1.9	 0	    1.00000	    0.00000	 110.0	 8	    1.10000	    0.90000;
	216	 1	 171.37	 54.70	 0.0	 2.21	 0	    1.00000	    0.00000	 220.0	 5	    1.10000	    0.90000;
	217	 1	 115.87	 0.10	 0.0	 7.36	 0	    1.00000	    0.00000	 220.0	 5	    1.10000	    0.90000;
	218	 1	 76.91	 15.12	 0.0	 2.23	 0	    1.00000	    0.00000	 220.0	 5	    1.10000	    0.90000;
	221	 2	 0.0	 0.0	 0.0	 0.0	 0	    1.00000	    0.00000	 380.0	 5	    1.10000	    0.90000;
	225	 1	 0.0	 0.0	 0.0	 1.15	 0	    1.00000	    0.00000	 220.0	 5	    1.10000	    0.90000;
	228	 1	 -23.43	 57.40	 0.0	 0.0	 0	    1.00000	    0.00000	 150.0	 2	    1.10000	    0.90000;
	230	 1	 167.49	 22.52	 0.0	 7.87	 0	    1.00000	    0.00000	 220.0	 4	    1.10000	    0.90000;
	231	 1	 -0.13	 -1.00	 0.0	 0.0	 0	    1.00000	    0.00000	 110.0	 8	    1.10000	    0.90000;
	236	 1	 50.50	 7.00	 0.0	 1.05	 0	    1.00000	    0.00000	 220.0	 4	    1.10000	    0.90000;
	243	 1	 0.00	 -0.01	 0.0	 13.49	 0	    1.00000	    0.00000	 150.0	 8	    1.10000	    0.90000;
	244	 1	 -0.0	 -0.0	 0.0	 0.68	 0	    1.00000	    0.00000	 150.0	 8	    1.10000	    0.90000;
	249	 1	 -0.0	 -0.0	 0.0	 26.3	 0	    1.00000	    0.00000	 220.0	 4	    1.10000	    0.90000;
	257	 1	 125.45	 24.50	 0.0	 6.72	 0	    1.00000	    0.00000	 220.0	 4	    1.10000	    0.90000;
	261	 1	 -0.0	 0.0	 0.0	 1.29	 0	    1.00000	    0.00000	 380.0	 10	    1.10000	    0.90000;
	264	 1	 42.67	 9.00	 0.0	 0.57	 0	    1.00000	    0.00000	 220.0	 4	    1.10000	    0.90000;
	266	 1	 0.0	 -0.0	 0.0	 140.96	 0	    1.00000	    0.00000	 380.0	 4	    1.10000	    0.90000;
	267	 1	 114.32	 2.70	 0.0	 3.33	 0	    1.00000	    0.00000	 220.0	 4	    1.10000	    0.90000;
	268	 1	 -0.13	 -1.00	 0.0	 0.0	 0	    1.00000	    0.00000	 220.0	 8	    1.10000	    0.90000;
	271	 1	 106.50	 26.80	 0.0	 0.0	 0	    1.00000	    0.00000	 150.0	 2	    1.10000	    0.90000;
	275	 1	 112.45	 25.30	 0.0	 1.11	 0	    1.00000	    0.00000	 150.0	 8	    1.10000	    0.90000;
	280	 1	 131.73	 29.60	 0.0	 5.34	 0	    1.00000	    0.00000	 220.0	 5	    1.10000	    0.90000;
	281	 1	 -0.0	 -0.0	 0.0	 18.07	 0	    1.00000	    0.00000	 380.0	 8	    1.10000	    0.90000;
	283	 1	 30.10	 11.90	 0.0	 1.17	 0	    1.00000	    0.00000	 220.0	 5	    1.10000	    0.90000;
	284	 1	 191.20	 -3.40	 0.0	 19.21	 0	    1.00000	    0.00000	 220.0	 4	    1.10000	    0.90000;
	292	 1	 15.22	 1.40	 0.0	 0.7	 0	    1.00000	    0.00000	 220.0	 5	    1.10000	    0.90000;
	297	 1	 26.14	 9.40	 0.0	 1.45	 0	    1.00000	    0.00000	 150.0	 8	    1.10000	    0.90000;
	299	 2	 0.0	 0.0	 0.0	 0.0	 0	    1.00000	    0.00000	 380.0	 4	    1.10000	    0.90000;
	304	 1	 2.42	 0.50	 0.0	 0.21	 0	    1.00000	    0.00000	 150.0	 10	    1.10000	    0.90000;
	305	 1	 113.44	 12.00	 0.0	 0.63	 0	    1.00000	    0.00000	 220.0	 5	    1.10000	    0.90000;
	306	 1	 -0.0	 0.0	 0.0	 4.76	 0	    1.00000	    0.00000	 220.0	 5	    1.10000	    0.90000;
	311	 1	 46.31	 17.20	 0.0	 1.31	 0	    1.00000	    0.00000	 150.0	 8	    1.10000	    0.90000;
	312	 1	 -0.16	 -2.91	 0.0	 0.43	 0	    1.00000	    0.00000	 110.0	 8	    1.10000	    0.90000;
	314	 1	 179.64	 46.30	 0.0	 10.6	 0	    1.00000	    0.00000	 220.0	 5	    1.10000	    0.90000;
	315	 1	 -0.0	 -0.0	 0.0	 2.13	 0	    1.00000	    0.00000	 220.0	 10	    1.10000	    0.90000;
	317	 1	 -0.0	 -0.0	 0.045946	 -1.82203	 0	    1.00000	    0.00000	 380.0	 2	    1.10000	    0.90000;
	322	 1	 334.60	 85.40	 0.0	 3.63	 0	    1.00000	    0.00000	 220.0	 10	    1.10000	    0.90000;
	326	 1	 0.0	 0.0	 0.0	 0.0	 0	    1.00000	    0.00000	 220.0	 8	    1.10000	    0.90000;
	333	 1	 577.67	 43.00	 0.0	 6.85	 0	    1.00000	    0.00000	 220.0	 5	    1.10000	    0.90000;
	338	 2	 0.0	 0.0	 0.0	 0.0	 0	    1.00000	    0.00000	 220.0	 5	    1.10000	    0.90000;
	344	 1	 410.59	 147.50	 0.0	 27.73	 0	    1.00000	    0.00000	 150.0	 8	    1.10000	    0.90000;
	346	 1	 217.52	 48.30	 0.0	 0.71	 0	    1.00000	    0.00000	 220.0	 5	    1.10000	    0.90000;
	349	 1	 -0.0	 0.0	 0.0	 15.15	 0	    1.00000	    0.00000	 150.0	 8	    1.10000	    0.90000;
	350	 1	 121.59	 26.20	 0.0	 5.62	 0	    1.00000	    0.00000	 220.0	 5	    1.10000	    0.90000;
	351	 1	 -0.15	 -1.93	 0.0	 0.0	 0	    1.00000	    0.00000	 220.0	 8	    1.10000	    0.90000;
	352	 2	 0.0	 0.0	 0.0	 0.0	 0	    1.00000	    0.00000	 380.0	 5	    1.10000	    0.90000;
	360	 1	 39.14	 11.50	 0.0	 3.65	 0	    1.00000	    0.00000	 110.0	 8	    1.10000	    0.90000;
	367	 1	 65.17	 -51.50	 0.0	 4.85	 0	    1.00000	    0.00000	 220.0	 5	    1.10000	    0.90000;
	369	 1	 -0.0	 0.0	 0.0	 3.78	 0	    1.00000	    0.00000	 220.0	 8	    1.10000	    0.90000;
	370	 1	 62.51	 23.20	 0.0	 0.49	 0	    1.00000	    0.00000	 150.0	 8	    1.10000	    0.90000;
	377	 1	 -0.18	 -1.00	 0.0	 0.0	 0	    1.00000	    0.00000	 150.0	 8	    1.10000	    0.90000;
	380	 1	 -95.71	 -2.80	 0.0	 7.25	 0	    1.00000	    0.00000	 220.0	 10	    1.10000	    0.90000;
	385	 1	 -0.0	 -0.0	 0.0	 105.84	 0	    1.00000	    0.00000	 380.0	 4	    1.10000	    0.90000;
	387	 1	 -0.19	 -4.38	 0.0	 0.0	 0	    1.00000	    0.00000	 150.0	 8	    1.10000	    0.90000;
	389	 2	 0.0	 0.0	 0.0	 0.0	 0	    1.00000	    0.00000	 150.0	 10	    1.10000	    0.90000;
	392	 1	 147.70	 34.20	 0.0	 0.75	 0	    1.00000	    0.00000	 150.0	 8	    1.10000	    0.90000;
	395	 1	 -0.0	 -0.0	 0.0	 7.85	 0	    1.00000	    0.00000	 380.0	 8	    1.10000	    0.90000;
	401	 1	 62.23	 36.29	 0.0	 3.08	 0	    1.00000	    0.00000	 220.0	 5	    1.10000	    0.90000;
	408	 1	 142.19	 7.40	 0.0	 0.04	 0	    1.00000	    0.00000	 220.0	 5	    1.10000	    0.90000;
	410	 1	 188.21	 50.38	 0.0	 6.44	 0	    1.00000	    0.00000	 220.0	 5	    1.10000	    0.90000;
	413	 2	 0.0	 0.0	 0.0	 0.0	 0	    1.00000	    0.00000	 220.0	 5	    1.10000	    0.90000;
	415	 1	 5.19	 0.70	 0.0	 11.39	 0	    1.00000	    0.00000	 220.0	 4	    1.10000	    0.90000;
	416	 1	 77.85	 13.50	 0.0	 6.96	 0	    1.00000	    0.00000	 220.0	 5	    1.10000	    0.90000;
	420	 1	 0.0	 0.0	 0.0	 0.0	 0	    1.00000	    0.00000	 380.0	 8	    1.10000	    0.90000;
	425	 1	 -0.0	 0.0	 0.0	 2.72	 0	    1.00000	    0.00000	 380.0	 1	    1.10000	    0.90000;
	426	 1	 135.58	 6.50	 0.0	 3.25	 0	    1.00000	    0.00000	 220.0	 5	    1.10000	    0.90000;
	427	 1	 -0.0	 0.0	 0.0	 1.24	 0	    1.00000	    0.00000	 380.0	 1	    1.10000	    0.90000;
	429	 1	 26.93	 -22.40	 0.0	 4.95	 0	    1.00000	    0.00000	 220.0	 4	    1.10000	    0.90000;
	432	 1	 -0.0	 -0.0	 0.0	 68.517663	 0	    1.00000	    0.00000	 380.0	 5	    1.10000	    0.90000;
	440	 2	 0.0	 0.0	 0.0	 0.0	 0	    1.00000	    0.00000	 220.0	 4	    1.10000	    0.90000;
	441	 1	 -0.0	 0.0	 0.199768	 27.888516	 0	    1.00000	    0.00000	 380.0	 10	    1.10000	    0.90000;
	442	 2	 0.0	 0.0	 0.0	 0.0	 0	    1.00000	    0.00000	 220.0	 4	    1.10000	    0.90000;
	444	 1	 0.0	 -0.0	 0.0	 2.45	 0	    1.00000	    0.00000	 220.0	 5	    1.10000	    0.90000;
	445	 1	 40.46	 10.30	 0.0	 8.1	 0	    1.00000	    0.00000	 220.0	 4	    1.10000	    0.90000;
	449	 1	 0.0	 0.0	 0.0	 29.42	 0	    1.00000	    0.00000	 380.0	 5	    1.10000	    0.90000;
	453	 2	 0.0	 0.0	 0.0	 0.0	 0	    1.00000	    0.00000	 380.0	 5	    1.10000	    0.90000;
	455	 1	 302.13	 5.66	 0.0	 13.24	 0	    1.00000	    0.00000	 220.0	 5	    1.10000	    0.90000;
	472	 1	 370.28	 131.60	 0.0	 64.01	 0	    1.00000	    0.00000	 150.0	 8	    1.10000	    0.90000;
	473	 1	 -22.95	 -3.72	 0.0	 14.34	 0	    1.00000	    0.00000	 220.0	 4	    1.10000	    0.90000;
	477	 1	 0.0	 0.0	 0.0	 70.37	 0	    1.00000	    0.00000	 380.0	 4	    1.10000	    0.90000;
	481	 1	 -0.0	 0.0	 0.0	 17.44	 0	    1.00000	    0.00000	 220.0	 4	    1.10000	    0.90000;
	483	 1	 63.07	 15.60	 0.0	 3.43	 0	    1.00000	    0.00000	 220.0	 4	    1.10000	    0.90000;
	486	 1	 7.72	 2.00	 0.0	 0.44	 0	    1.00000	    0.00000	 150.0	 8	    1.10000	    0.90000;
	489	 2	 0.0	 0.0	 0.0	 0.0	 0	    1.00000	    0.00000	 220.0	 4	    1.10000	    0.90000;
	490	 1	 22.60	 4.00	 0.0	 2.77	 0	    1.00000	    0.00000	 220.0	 5	    1.10000	    0.90000;
	496	 1	 -0.0	 -0.0	 0.0	 10.04	 0	    1.00000	    0.00000	 150.0	 8	    1.10000	    0.90000;
	500	 1	 159.04	 35.50	 0.0	 7.66	 0	    1.00000	    0.00000	 220.0	 5	    1.10000	    0.90000;
	502	 1	 -0.0	 0.0	 0.0	 1.96	 0	    1.00000	    0.00000	 220.0	 5	    1.10000	    0.90000;
	506	 1	 -0.0	 0.0	 0.0	 0.4	 0	    1.00000	    0.00000	 380.0	 5	    1.10000	    0.90000;
	509	 1	 85.13	 7.00	 0.0	 17.6	 0	    1.00000	    0.00000	 220.0	 4	    1.10000	    0.90000;
	513	 1	 63.29	 17.10	 0.0	 1.61	 0	    1.00000	    0.00000	 220.0	 5	    1.10000	    0.90000;
	516	 2	 0.0	 0.0	 0.0	 0.0	 0	    1.00000	    0.00000	 220.0	 5	    1.10000	    0.90000;
	519	 1	 228.21	 9.40	 0.0	 8.77	 0	    1.00000	    0.00000	 220.0	 4	    1.10000	    0.90000;
	520	 1	 130.51	 20.40	 0.0	 2.57	 0	    1.00000	    0.00000	 220.0	 5	    1.10000	    0.90000;
	523	 1	 209.15	 74.70	 0.0	 26.2	 0	    1.00000	    0.00000	 150.0	 8	    1.10000	    0.90000;
	527	 1	 305.85	 45.40	 0.0	 0.7	 0	    1.00000	    0.00000	 220.0	 4	    1.10000	    0.90000;
	536	 1	 87.80	 -1.40	 0.079073	 36.047349	 0	    1.00000	    0.00000	 380.0	 10	    1.10000	    0.90000;
	539	 1	 63.84	 18.90	 0.0	 14.91	 0	    1.00000	    0.00000	 150.0	 8	    1.10000	    0.90000;
	544	 1	 87.77	 39.60	 0.0	 18.83	 0	    1.00000	    0.00000	 380.0	 10	    1.10000	    0.90000;
	548	 1	 34.07	 8.90	 0.0	 0.45	 0	    1.00000	    0.00000	 110.0	 8	    1.10000	    0.90000;
	549	 1	 0.0	 -0.0	 0.0	 5.15	 0	    1.00000	    0.00000	 220.0	 5	    1.10000	    0.90000;
	550	 1	 0.0	 -0.0	 0.0	 10.0	 0	    1.00000	    0.00000	 220.0	 4	    1.10000	    0.90000;
	552	 1	 199.13	 90.80	 0.0	 2.42	 0	    1.00000	    0.00000	 150.0	 10	    1.10000	    0.90000;
	554	 1	 0.0	 -0.0	 0.0	 1.97	 0	    1.00000	    0.00000	 220.0	 5	    1.10000	    0.90000;
	556	 1	 18.19	 9.00	 0.0	 1.17	 0	    1.00000	    0.00000	 220.0	 5	    1.10000	    0.90000;
	558	 1	 -0.18	 -3.57	 0.0	 0.0	 0	    1.00000	    0.00000	 150.0	 8	    1.10000	    0.90000;
	559	 1	 46.53	 16.60	 0.0	 0.0	 0	    1.00000	    0.00000	 150.0	 8	    1.10000	    0.90000;
	561	 1	 0.0	 -0.0	 0.0	 0.32	 0	    1.00000	    0.00000	 220.0	 5	    1.10000	    0.90000;
	564	 2	 0.0	 0.0	 0.0	 0.0	 0	    1.00000	    0.00000	 220.0	 5	    1.10000	    0.90000;
	575	 1	 0.0	 -0.0	 0.0	 0.67	 0	    1.00000	    0.00000	 220.0	 5	    1.10000	    0.90000;
	577	 1	 -0.13	 -1.00	 0.0	 0.0	 0	    1.00000	    0.00000	 220.0	 8	    1.10000	    0.90000;
	579	 1	 19.08	 6.60	 0.0	 16.52	 0	    1.00000	    0.00000	 380.0	 4	    1.10000	    0.90000;
	583	 2	 0.0	 0.0	 0.0	 0.0	 0	    1.00000	    0.00000	 220.0	 5	    1.10000	    0.90000;
	585	 1	 23.26	 8.30	 0.0	 4.26	 0	    1.00000	    0.00000	 150.0	 8	    1.10000	    0.90000;
	593	 1	 -0.0	 0.0	 0.0	 29.2	 0	    1.00000	    0.00000	 380.0	 8	    1.10000	    0.90000;
	594	 1	 74.42	 17.00	 0.0	 5.75	 0	    1.00000	    0.00000	 220.0	 5	    1.10000	    0.90000;
	595	 1	 52.37	 5.30	 0.0	 7.59	 0	    1.00000	    0.00000	 220.0	 4	    1.10000	    0.90000;
	597	 1	 36.72	 15.70	 0.0	 64.15	 0	    1.00000	    0.00000	 380.0	 4	    1.10000	    0.90000;
	601	 1	 154.85	 42.60	 0.0	 5.71	 0	    1.00000	    0.00000	 220.0	 5	    1.10000	    0.90000;
	602	 1	 110.80	 -8.80	 0.0	 3.15	 0	    1.00000	    0.00000	 220.0	 4	    1.10000	    0.90000;
	604	 1	 36.61	 4.40	 0.0	 24.54	 0	    1.00000	    0.00000	 380.0	 5	    1.10000	    0.90000;
	608	 1	 166.20	 10.40	 0.0	 4.77	 0	    1.00000	    0.00000	 220.0	 5	    1.10000	    0.90000;
	609	 1	 -0.0	 -0.0	 0.0	 5.67	 0	    1.00000	    0.00000	 220.0	 5	    1.10000	    0.90000;
	610	 1	 -0.0	 0.0	 0.0	 0.91	 0	    1.00000	    0.00000	 150.0	 10	    1.10000	    0.90000;
	615	 2	 0.0	 0.0	 0.0	 0.0	 0	    1.00000	    0.00000	 220.0	 5	    1.10000	    0.90000;
	616	 2	 0.0	 0.0	 0.0	 0.0	 0	    1.00000	    0.00000	 220.0	 5	    1.10000	    0.90000;
	618	 2	 0.0	 0.0	 0.0	 0.0	 0	    1.00000	    0.00000	 380.0	 4	    1.10000	    0.90000;
	619	 1	 80.27	 14.40	 0.0	 2.96	 0	    1.00000	    0.00000	 220.0	 5	    1.10000	    0.90000;
	621	 1	 23.59	 8.10	 0.0	 7.38	 0	    1.00000	    0.00000	 220.0	 4	    1.10000	    0.90000;
	628	 2	 0.0	 0.0	 0.0	 0.0	 0	    1.00000	    0.00000	 220.0	 10	    1.10000	    0.90000;
	639	 2	 0.0	 0.0	 0.0	 0.0	 0	    1.00000	    0.00000	 220.0	 5	    1.10000	    0.90000;
	641	 1	 49.91	 18.50	 0.0	 0.74	 0	    1.00000	    0.00000	 220.0	 5	    1.10000	    0.90000;
	642	 2	 0.0	 0.0	 0.0	 0.0	 0	    1.00000	    0.00000	 380.0	 4	    1.10000	    0.90000;
	643	 1	 17.09	 6.30	 0.0	 0.6	 0	    1.00000	    0.00000	 150.0	 8	    1.10000	    0.90000;
	649	 1	 45.09	 19.20	 0.0	 5.2	 0	    1.00000	    0.00000	 220.0	 4	    1.10000	    0.90000;
	650	 1	 18.97	 4.40	 0.0	 1.71	 0	    1.00000	    0.00000	 110.0	 8	    1.10000	    0.90000;
	656	 1	 -0.15	 -1.93	 0.0	 0.0	 0	    1.00000	    0.00000	 220.0	 8	    1.10000	    0.90000;
	658	 1	 284.60	 66.70	 0.0	 5.87	 0	    1.00000	    0.00000	 220.0	 5	    1.10000	    0.90000;
	659	 1	 -0.0	 -0.0	 0.174507	 73.977052	 0	    1.00000	    0.00000	 380.0	 2	    1.10000	    0.90000;
...
];

%% generator data
%	bus	Pg	Qg	Qmax	Qmin	Vg	mBase	status	Pmax	Pmin
mpc.gen = [
	32	 138.5	 0.0	 258.0	 -258.0	 1.0	 100.0	 1	 277	 0.0; % NG
	33	 172.0	 0.0	 2673.6	 -2673.6	 1.0	 100.0	 1	 344	 0.0; % NG
	39	 64.5	 0.0	 65.0	 -65.0	 1.0	 100.0	 1	 129	 0.0; % COW
	51	 -96.335	 0.0	 37.2	 -37.2	 1.0	 100.0	 1	 0	 -192.67; % SYNC
	124	 389.3325	 67.16	 440.32	 -306.0	 1.0	 100.0	 1	 612	 166.665; % COW
	150	 100.5	 0.0	 778.8	 -778.8	 1.0	 100.0	 1	 201	 0.0; % NG
	179	 -36.465	 0.0	 174.0	 -174.0	 1.0	 100.0	 1	 166	 -238.93; % NG
	194	 200.5	 0.0	 176.0	 -176.0	 1.0	 100.0	 1	 351	 50.0; % COW
	201	 122.5	 0.0	 123.0	 -123.0	 1.0	 100.0	 1	 245	 0.0; % NG
	221	 -103.59	 59.31	 183.92	 -65.3	 1.0	 100.0	 1	 0	 -207.18; % SYNC
	299	 629.3325	 112.625	 721.25	 -496.0	 1.0	 100.0	 1	 992	 266.665; % NUC
	338	 93.5	 0.0	 94.0	 -94.0	 1.0	 100.0	 1	 187	 0.0; % NG
	352	 634.1675	 229.175	 926.35	 -468.0	 1.0	 100.0	 1	 935	 333.335; % NG
	389	 67.0	 0.0	 67.0	 -67.0	 1.0	 100.0	 1	 134	 0.0; % COW
	413	 69.5	 27.06	 124.12	 -70.0	 1.0	 100.0	 1	 139	 0.0; % NG
	440	 73.0	 0.0	 73.0	 -73.0	 1.0	 100.0	 1	 146	 0.0; % NG
	442	 95.1	 0.0	 122.0	 -122.0	 1.0	 100.0	 1	 244	 -53.8; % COW
	453	 182.0	 37.615	 257.23	 -182.0	 1.0	 100.0	 1	 364	 0.0; % NG
	489	 -23.6	 0.0	 64.8	 -64.8	 1.0	 100.0	 1	 96	 -143.2; % NG
	516	 251.5	 29.895	 261.79	 -202.0	 1.0	 100.0	 1	 403	 100.0; % COW
	564	 603.555	 0.0	 638.0	 -638.0	 1.0	 100.0	 1	 1276	 -68.89; % NG
	583	 -180.0	 1.14	 17.88	 -15.6	 1.0	 100.0	 1	 0	 -360.0; % SYNC
	615	 44.5	 0.0	 762.0	 -762.0	 1.0	 100.0	 1	 89	 0.0; % NG
	616	 246.5	 5.45	 217.9	 -207.0	 1.0	 100.0	 1	 413	 80.0; % COW
	618	 559.6675	 0.0	 493.0	 -493.0	 1.0	 100.0	 1	 986	 133.335; % NG
	628	 100.0	 0.0	 159.6	 -159.6	 1.0	 100.0	 1	 200	 0.0; % NG
	639	 357.2	 0.0	 388.0	 -388.0	 1.0	 100.0	 1	 776	 -61.6; % COW
	642	 529.5	 0.0	 530.0	 -530.0	 1.0	 100.0	 1	 1059	 0.0; % COW
	682	 79.5	 0.0	 80.0	 -80.0	 1.0	 100.0	 1	 159	 0.0; % NG
	686	 114.57	 0.0	 129.0	 -129.0	 1.0	 100.0	 1	 258	 -28.86; % NG
	698	 342.5	 0.0	 318.0	 -318.0	 1.0	 100.0	 1	 635	 50.0; % NG
	709	 106.0	 0.0	 186.0	 -186.0	 1.0	 100.0	 1	 212	 0.0; % PEL
	739	 260.6675	 0.0	 219.0	 -219.0	 1.0	 100.0	 1	 438	 83.335; % NG
	749	 70.0	 17.845	 105.69	 -70.0	 1.0	 100.0	 1	 140	 0.0; % NG
	751	 106.0	 15.47	 136.94	 -106.0	 1.0	 100.0	 1	 212	 0.0; % NG
	757	 611.5	 0.0	 612.0	 -612.0	 1.0	 100.0	 1	 1223	 0.0; % NG
	776	 18.235	 0.0	 93.0	 -93.0	 1.0	 100.0	 1	 185	 -148.53; % NG
	778	 42.0	 0.0	 2246.4	 -2246.4	 1.0	 100.0	 1	 84	 0.0; % PEL
	780	 151.0	 0.0	 13094.4	 -13094.4	 1.0	 100.0	 1	 302	 0.0; % NG
	795	 132.5	 0.0	 13797.6	 -13797.6	 1.0	 100.0	 1	 265	 0.0; % NG
	803	 -40.965	 24.245	 74.03	 -25.54	 1.0	 100.0	 1	 37	 -118.93; % NG
	807	 775.1675	 127.735	 864.47	 -609.0	 1.0	 100.0	 1	 1217	 333.335; % NUC
	823	 840.6675	 126.34	 926.68	 -674.0	 1.0	 100.0	 1	 1348	 333.335; % COW
	849	 129.5	 0.0	 253.2	 -253.2	 1.0	 100.0	 1	 259	 0.0; % PEL
	851	 104.5	 0.0	 124.8	 -124.8	 1.0	 100.0	 1	 209	 0.0; % NG
	858	 919.8325	 0.0	 837.0	 -837.0	 1.0	 100.0	 1	 1673	 166.665; % COW
	891	 978.5	 159.205	 1097.41	 -779.0	 1.0	 100.0	 1	 1557	 400.0; % COW
	913	 1671.6675	 0.0	 1530.0	 -1530.0	 1.0	 100.0	 1	 3060	 283.335; % NUC
	916	 178.0	 0.0	 178.0	 -178.0	 1.0	 100.0	 1	 356	 0.0; % NG
	930	 348.0	 66.83	 406.66	 -273.0	 1.0	 100.0	 1	 546	 150.0; % PEL
	972	 781.1675	 159.865	 934.73	 -615.0	 1.0	 100.0	 1	 1229	 333.335; % COW
	976	 334.5	 0.0	 335.0	 -335.0	 1.0	 100.0	 1	 669	 0.0; % NG
	1001	 908.5	 0.0	 909.0	 -909.0	 1.0	 100.0	 1	 1817	 0.0; % COW
	1002	 477.0	 0.0	 477.0	 -477.0	 1.0	 100.0	 1	 954	 0.0; % NG
	1021	 46.465	 0.0	 166.0	 -166.0	 1.0	 100.0	 1	 332	 -239.07; % COW
	1030	 150.5	 0.0	 126.0	 -126.0	 1.0	 100.0	 1	 251	 50.0; % NG
	1036	 111.5	 25.195	 137.39	 -87.0	 1.0	 100.0	 1	 173	 50.0; % NG
	1043	 509.0	 0.0	 74402.4	 -74402.4	 1.0	 100.0	 1	 868	 150.0; % COW
	1083	 72.0	 0.0	 72.0	 -72.0	 1.0	 100.0	 1	 144	 0.0; % NG
	1093	 490.0	 0.0	 13849.2	 -13849.2	 1.0	 100.0	 1	 780	 200.0; % COW
	1100	 50.0	 0.0	 50.0	 -50.0	 1.0	 100.0	 1	 100	 0.0; % NG
	1102	 -50.77	 -3.175	 38.05	 -44.4	 1.0	 100.0	 1	 64	 -165.54; % NG
	1121	 85.5	 2.3	 158.2	 -153.6	 1.0	 100.0	 1	 171	 0.0; % NG
	1173	 -83.135	 0.0	 21.6	 -21.6	 1.0	 100.0	 1	 0	 -166.27; % SYNC
	1174	 74.5	 0.0	 75.0	 -75.0	 1.0	 100.0	 1	 149	 0.0; % NG
	1175	 661.5	 0.0	 612.0	 -612.0	 1.0	 100.0	 1	 1223	 100.0; % COW
	1237	 720.6675	 176.305	 906.61	 -554.0	 1.0	 100.0	 1	 1108	 333.335; % NUC
	1241	 85.0	 0.0	 85.0	 -85.0	 1.0	 100.0	 1	 170	 0.0; % PEL
	1251	 798.5	 0.0	 699.0	 -699.0	 1.0	 100.0	 1	 1397	 200.0; % COW
	1271	 -25.5	 0.0	 42.0	 -42.0	 1.0	 100.0	 1	 83	 -134.0; % NG
	1295	 -82.735	 12.02	 36.92	 -12.88	 1.0	 100.0	 1	 0	 -165.47; % SYNC
	1341	 149.0	 0.0	 149.0	 -149.0	 1.0	 100.0	 1	 298	 0.0; % NG
	1354	 -164.335	 2.24	 38.08	 -33.6	 1.0	 100.0	 1	 0	 -328.67; % SYNC
	1391	 61.0	 0.0	 61.0	 -61.0	 1.0	 100.0	 1	 122	 0.0; % NG
	1399	 230.1	 0.0	 347.0	 -347.0	 1.0	 100.0	 1	 693	 -232.8; % COW
	1409	 1170.1675	 0.0	 1104.0	 -1104.0	 1.0	 100.0	 1	 2207	 133.335; % COW
	1422	 68.165	 0.0	 136.0	 -136.0	 1.0	 100.0	 1	 271	 -134.67; % NG
	1436	 163.5	 0.0	 14618.4	 -14618.4	 1.0	 100.0	 1	 327	 0.0; % NG
	1458	 626.1675	 217.615	 895.23	 -460.0	 1.0	 100.0	 1	 919	 333.335; % NUC
	1475	 529.5	 0.0	 455.0	 -455.0	 1.0	 100.0	 1	 909	 150.0; % COW
	1478	 147.5	 0.0	 148.0	 -148.0	 1.0	 100.0	 1	 295	 0.0; % NG
	1498	 244.5	 0.0	 245.0	 -245.0	 1.0	 100.0	 1	 489	 0.0; % NG
	1570	 285.6675	 0.0	 269.0	 -269.0	 1.0	 100.0	 1	 538	 33.335; % NG
	1604	 57.5	 0.0	 58.0	 -58.0	 1.0	 100.0	 1	 115	 0.0; % PEL
	1618	 -91.065	 0.0	 102.0	 -102.0	 1.0	 100.0	 1	 0	 -182.13; % SYNC
	1642	 180.0	 0.0	 336.0	 -336.0	 1.0	 100.0	 1	 360	 0.0; % NG
	1680	 706.1675	 194.445	 928.89	 -540.0	 1.0	 100.0	 1	 1079	 333.335; % COW
	1685	 135.0	 0.0	 135.0	 -135.0	 1.0	 100.0	 1	 270	 0.0; % NG
	1697	 -81.0	 0.0	 45.0	 -45.0	 1.0	 100.0	 1	 90	 -252.0; % NG
	1708	 847.3325	 0.0	 764.0	 -764.0	 1.0	 100.0	 1	 1528	 166.665; % COW
	1721	 190.5	 0.0	 742.8	 -742.8	 1.0	 100.0	 1	 381	 0.0; % COW
	1747	 325.5	 0.0	 486.0	 -486.0	 1.0	 100.0	 1	 501	 150.0; % COW
	1754	 277.0	 0.0	 754.8	 -754.8	 1.0	 100.0	 1	 554	 0.0; % NG
	1788	 602.5	 0.0	 1830.0	 -1830.0	 1.0	 100.0	 1	 1105	 100.0; % NG
	1793	 32.8	 0.0	 93.0	 -93.0	 1.0	 100.0	 1	 186	 -120.4; % COW
	1794	 913.1675	 89.675	 926.35	 -747.0	 1.0	 100.0	 1	 1493	 333.335; % COW
	1808	 86.1	 12.115	 111.23	 -87.0	 1.0	 100.0	 1	 173	 -0.8; % NG
	1850	 149.0	 0.0	 149.0	 -149.0	 1.0	 100.0	 1	 298	 0.0; % PEL
	1851	 92.0	 0.0	 14511.6	 -14511.6	 1.0	 100.0	 1	 184	 0.0; % PEL
	1852	 -62.7	 0.0	 99.0	 -99.0	 1.0	 100.0	 1	 197	 -322.4; % NG
	1888	 455.695	 9.01	 396.02	 -378.0	 1.0	 100.0	 1	 755	 156.39; % COW
	1890	 676.3325	 71.865	 686.73	 -543.0	 1.0	 100.0	 1	 1086	 266.665; % NUC
	1898	 164.5	 0.0	 165.0	 -165.0	 1.0	 100.0	 1	 329	 0.0; % COW
	1909	 55.715	 0.0	 77.0	 -77.0	 1.0	 100.0	 1	 153	 -41.57; % NG
	1914	 89.3375	 0.0	 362.4	 -362.4	 1.0	 100.0	 1	 159	 19.675; % COW
	1947	 260.15	 0.0	 272.0	 -272.0	 1.0	 100.0	 1	 543	 -22.7; % NG
	1959	 55.0	 0.0	 727.2	 -727.2	 1.0	 100.0	 1	 110	 0.0; % NG
	1999	 78.5	 0.0	 172.8	 -172.8	 1.0	 100.0	 1	 157	 0.0; % COW
	2030	 353.5	 0.0	 304.0	 -304.0	 1.0	 100.0	 1	 607	 100.0; % COW
	2035	 549.3325	 0.0	 466.0	 -466.0	 1.0	 100.0	 1	 932	 166.665; % COW
	2050	 913.6675	 107.6	 962.2	 -747.0	 1.0	 100.0	 1	 1494	 333.335; % COW
	2085	 113.5	 0.0	 114.0	 -114.0	 1.0	 100.0	 1	 227	 0.0; % NG
	2091	 84.5	 0.0	 85.0	 -85.0	 1.0	 100.0	 1	 169	 0.0; % NG
	2096	 531.5	 45.37	 522.74	 -432.0	 1.0	 100.0	 1	 863	 200.0; % COW
	2107	 713.0	 0.0	 2505.6	 -2505.6	 1.0	 100.0	 1	 1176	 250.0; % COW
	2150	 361.0	 0.0	 342.0	 -342.0	 1.0	 100.0	 1	 622	 100.0; % COW
	2177	 10.135	 0.0	 91.0	 -91.0	 1.0	 100.0	 1	 182	 -161.73; % NG
	2193	 91.5	 0.0	 92.0	 -92.0	 1.0	 100.0	 1	 183	 0.0; % NG
	2197	 43.475	 0.0	 193.2	 -193.2	 1.0	 100.0	 1	 158	 -71.05; % NG
	2206	 208.0	 0.0	 183.0	 -183.0	 1.0	 100.0	 1	 366	 50.0; % COW
	2225	 -48.665	 0.0	 7.0	 -7.0	 1.0	 100.0	 1	 14	 -111.33; % COW
	2236	 -2.63	 0.0	 23.0	 -23.0	 1.0	 100.0	 1	 46	 -51.26; % NG
	2267	 418.1675	 0.0	 377.0	 -377.0	 1.0	 100.0	 1	 753	 83.335; % COW
	2276	 31.0	 0.0	 126.0	 -126.0	 1.0	 100.0	 1	 62	 0.0; % NG
	2291	 149.5	 0.0	 150.0	 -150.0	 1.0	 100.0	 1	 299	 0.0; % COW
	2335	 573.0	 0.0	 523.0	 -523.0	 1.0	 100.0	 1	 1046	 100.0; % COW
	2359	 145.0	 0.0	 145.0	 -145.0	 1.0	 100.0	 1	 290	 0.0; % PEL
	2412	 98.5	 -0.875	 134.54	 -136.29	 1.0	 100.0	 1	 197	 0.0; % NG
	2421	 273.9	 0.0	 488.0	 -488.0	 1.0	 100.0	 1	 975	 -427.2; % COW
	2425	 142.5	 0.0	 210.0	 -210.0	 1.0	 100.0	 1	 419	 -134.0; % NG
	2426	 31.2	 0.0	 266.4	 -266.4	 1.0	 100.0	 1	 120	 -57.6; % NG
	2446	 650.6675	 218.81	 921.62	 -484.0	 1.0	 100.0	 1	 968	 333.335; % COW
	2460	 90.0	 0.0	 178.8	 -178.8	 1.0	 100.0	 1	 180	 0.0; % NG
	2468	 57.0	 0.0	 57.0	 -57.0	 1.0	 100.0	 1	 114	 0.0; % NG
	2481	 151.5	 0.0	 152.0	 -152.0	 1.0	 100.0	 1	 303	 0.0; % NG
	2489	 54.5	 50.305	 162.4	 -61.79	 1.0	 100.0	 1	 109	 0.0; % NG
	2517	 82.5	 0.0	 83.0	 -83.0	 1.0	 100.0	 1	 165	 0.0; % NG
	2550	 71.5	 0.0	 253.2	 -253.2	 1.0	 100.0	 1	 143	 0.0; % NG
	2572	 274.0	 26.095	 276.19	 -224.0	 1.0	 100.0	 1	 448	 100.0; % NG
	2600	 266.5	 0.0	 460.8	 -460.8	 1.0	 100.0	 1	 533	 0.0; % NG
	2627	 670.6675	 208.76	 921.52	 -504.0	 1.0	 100.0	 1	 1008	 333.335; % COW
	2642	 913.1675	 50.88	 848.76	 -747.0	 1.0	 100.0	 1	 1493	 333.335; % COW
	2653	 420.0	 0.0	 420.0	 -420.0	 1.0	 100.0	 1	 840	 0.0; % COW
	2658	 303.0	 0.0	 253.0	 -253.0	 1.0	 100.0	 1	 506	 100.0; % COW
	2660	 47.5	 15.845	 79.69	 -48.0	 1.0	 100.0	 1	 95	 0.0; % NG
	2686	 -20.1	 -0.445	 69.01	 -69.9	 1.0	 100.0	 1	 57	 -97.2; % NG
	2719	 329.0	 0.0	 17530.8	 -17530.8	 1.0	 100.0	 1	 658	 0.0; % COW
	2764	 747.0	 0.0	 672.0	 -672.0	 1.0	 100.0	 1	 1344	 150.0; % COW
	2786	 746.6675	 177.405	 934.81	 -580.0	 1.0	 100.0	 1	 1160	 333.335; % NUC
	2797	 -61.9	 26.0	 88.33	 -36.33	 1.0	 100.0	 1	 3	 -126.8; % NG
	2799	 154.5	 0.0	 155.0	 -155.0	 1.0	 100.0	 1	 309	 0.0; % COW
	2800	 611.0	 7.17	 525.34	 -511.0	 1.0	 100.0	 1	 1022	 200.0; % NUC
	2816	 693.6675	 199.63	 926.26	 -527.0	 1.0	 100.0	 1	 1054	 333.335; % COW
	2817	 218.5	 0.0	 392.4	 -392.4	 1.0	 100.0	 1	 437	 0.0; % NG
	2841	 142.0	 0.0	 142.0	 -142.0	 1.0	 100.0	 1	 284	 0.0; % COW
	2842	 59.0	 0.0	 59.0	 -59.0	 1.0	 100.0	 1	 118	 0.0; % NG
	2853	 239.0	 0.0	 239.0	 -239.0	 1.0	 100.0	 1	 478	 0.0; % COW
	2872	 109.5	 0.0	 110.0	 -110.0	 1.0	 100.0	 1	 219	 0.0; % COW
	2878	 62.5	 2.12	 72.95	 -68.71	 1.0	 100.0	 1	 125	 0.0; % NG
	2886	 186.5	 0.0	 187.0	 -187.0	 1.0	 100.0	 1	 373	 0.0; % NG
	2896	 -148.935	 0.0	 121.2	 -121.2	 1.0	 100.0	 1	 0	 -297.87; % SYNC
	2902	 43.5	 0.0	 44.0	 -44.0	 1.0	 100.0	 1	 87	 0.0; % PEL
	2930	 73.5	 0.0	 12280.8	 -12280.8	 1.0	 100.0	 1	 147	 0.0; % NG
	2934	 111.5	 0.0	 4002.0	 -4002.0	 1.0	 100.0	 1	 223	 0.0; % PEL
	2946	 -99.565	 0.0	 49.0	 -49.0	 1.0	 100.0	 1	 97	 -296.13; % NG
	2985	 132.5	 25.73	 184.46	 -133.0	 1.0	 100.0	 1	 265	 0.0; % COW
	3018	 153.5	 0.0	 154.0	 -154.0	 1.0	 100.0	 1	 307	 0.0; % NG
	3028	 863.3325	 0.0	 780.0	 -780.0	 1.0	 100.0	 1	 1560	 166.665; % COW
	3054	 325.3325	 0.0	 566.4	 -566.4	 1.0	 100.0	 1	 584	 66.665; % NG
	3113	 161.965	 0.0	 525.6	 -525.6	 1.0	 100.0	 1	 351	 -27.07; % NG
	3114	 202.0	 0.0	 202.0	 -202.0	 1.0	 100.0	 1	 404	 0.0; % COW
	3133	 61.0	 26.485	 113.97	 -61.0	 1.0	 100.0	 1	 122	 0.0; % COW
	3134	 -80.865	 8.725	 70.25	 -52.8	 1.0	 100.0	 1	 20	 -181.73; % COW
	3150	 128.105	 0.0	 149.0	 -149.0	 1.0	 100.0	 1	 298	 -41.79; % PEL
	3157	 103.5	 0.0	 104.0	 -104.0	 1.0	 100.0	 1	 207	 0.0; % PEL
	3163	 142.5	 0.0	 143.0	 -143.0	 1.0	 100.0	 1	 285	 0.0; % NG
	3183	 58.0	 0.0	 58.0	 -58.0	 1.0	 100.0	 1	 116	 0.0; % NG
	3205	 147.0	 0.0	 332.4	 -332.4	 1.0	 100.0	 1	 294	 0.0; % COW
	3218	 -60.6	 0.0	 46.8	 -46.8	 1.0	 100.0	 1	 22	 -143.2; % NG
	3233	 135.0	 21.735	 178.47	 -135.0	 1.0	 100.0	 1	 270	 0.0; % NG
	3240	 61.8	 0.0	 154.8	 -154.8	 1.0	 100.0	 1	 180	 -56.4; % COW
	3291	 231.1675	 19.5	 229.0	 -190.0	 1.0	 100.0	 1	 379	 83.335; % COW
	3306	 354.3325	 84.1	 439.2	 -271.0	 1.0	 100.0	 1	 542	 166.665; % COW
	3324	 114.85	 0.0	 133.0	 -133.0	 1.0	 100.0	 1	 265	 -35.3; % NG
	3334	 152.165	 0.0	 2839.2	 -2839.2	 1.0	 100.0	 1	 365	 -60.67; % NG
	3335	 -140.0	 0.0	 99999.0	 -99999.0	 1.0	 100.0	 1	 350	 -630.0; % COW
	3346	 366.0	 0.0	 366.0	 -366.0	 1.0	 100.0	 1	 732	 0.0; % PEL
	3353	 79.0	 0.0	 79.0	 -79.0	 1.0	 100.0	 1	 158	 0.0; % NG
	3364	 109.5	 0.0	 110.0	 -110.0	 1.0	 100.0	 1	 219	 0.0; % COW
	3390	 278.0	 0.0	 278.0	 -278.0	 1.0	 100.0	 1	 556	 0.0; % NG
	3416	 110.0	 0.0	 110.0	 -110.0	 1.0	 100.0	 1	 220	 0.0; % NG
	3422	 67.0	 0.0	 67.0	 -67.0	 1.0	 100.0	 1	 134	 0.0; % COW
	3436	 660.0	 0.0	 560.0	 -560.0	 1.0	 100.0	 1	 1120	 200.0; % NUC
	3492	 -247.2	 16.335	 53.75	 -21.08	 1.0	 100.0	 1	 0	 -494.4; % SYNC
	3513	 466.0	 0.0	 88012.8	 -88012.8	 1.0	 100.0	 1	 782	 150.0; % NUC
	3565	 87.5	 0.0	 88.0	 -88.0	 1.0	 100.0	 1	 175	 0.0; % NG
	3580	 198.5	 31.35	 261.7	 -199.0	 1.0	 100.0	 1	 397	 0.0; % NG
	3582	 -214.535	 0.395	 52.83	 -52.04	 1.0	 100.0	 1	 0	 -429.07; % SYNC
	3584	 -0.435	 0.0	 59.0	 -59.0	 1.0	 100.0	 1	 117	 -117.87; % NG
	3585	 97.5	 0.0	 15219.6	 -15219.6	 1.0	 100.0	 1	 195	 0.0; % NG
...
];

%% generator cost data
%	2	startup	shutdown	n	c(n-1)	...	c0
mpc.gencost = [
	2	 0.0	 0.0	 3	   0.000000	  31.541850	   0.000000; % NG
	2	 0.0	 0.0	 3	   0.000000	  34.788873	   0.000000; % NG
	2	 0.0	 0.0	 3	   0.000000	  45.259135	   0.000000; % COW
	2	 0.0	 0.0	 3	   0.000000	  29.222557	   0.000000; % SYNC
	2	 0.0	 0.0	 3	   0.000000	   6.831746	   0.000000; % COW
	2	 0.0	 0.0	 3	   0.000000	  25.158881	   0.000000; % NG
	2	 0.0	 0.0	 3	   0.000000	 105.683605	   0.000000; % NG
	2	 0.0	 0.0	 3	   0.000000	  20.731624	   0.000000; % COW
	2	 0.0	 0.0	 3	   0.000000	  22.098373	   0.000000; % NG
	2	 0.0	 0.0	 3	   0.000000	  27.353439	   0.000000; % SYNC
	2	 0.0	 0.0	 3	   0.000000	  13.318110	   0.000000; % NUC
	2	 0.0	 0.0	 3	   0.000000	   7.918182	   0.000000; % NG
	2	 0.0	 0.0	 3	   0.000000	  37.155789	   0.000000; % NG
	2	 0.0	 0.0	 3	   0.000000	  28.145150	   0.000000; % COW
	2	 0.0	 0.0	 3	   0.000000	  36.581832	   0.000000; % NG
	2	 0.0	 0.0	 3	   0.000000	  27.078298	   0.000000; % NG
	2	 0.0	 0.0	 3	   0.000000	  15.164131	   0.000000; % COW
	2	 0.0	 0.0	 3	   0.000000	  15.398785	   0.000000; % NG
	2	 0.0	 0.0	 3	   0.000000	  16.315499	   0.000000; % NG
	2	 0.0	 0.0	 3	   0.000000	  33.195140	   0.000000; % COW
	2	 0.0	 0.0	 3	   0.000000	  38.524070	   0.000000; % NG
	2	 0.0	 0.0	 3	   0.000000	  21.923969	   0.000000; % SYNC
	2	 0.0	 0.0	 3	   0.000000	  27.942796	   0.000000; % NG
	2	 0.0	 0.0	 3	   0.000000	  31.475733	   0.000000; % COW
	2	 0.0	 0.0	 3	   0.000000	  17.179463	   0.000000; % NG
	2	 0.0	 0.0	 3	   0.000000	  36.911222	   0.000000; % NG
	2	 0.0	 0.0	 3	   0.000000	  42.661481	   0.000000; % COW
	2	 0.0	 0.0	 3	   0.000000	  31.681820	   0.000000; % COW
	2	 0.0	 0.0	 3	   0.000000	  56.690369	   0.000000; % NG
	2	 0.0	 0.0	 3	   0.000000	  18.564121	   0.000000; % NG
	2	 0.0	 0.0	 3	   0.000000	  56.862119	   0.000000; % NG
	2	 0.0	 0.0	 3	   0.000000	  27.565617	   0.000000; % PEL
	2	 0.0	 0.0	 3	   0.000000	  44.265658	   0.000000; % NG
	2	 0.0	 0.0	 3	   0.000000	  23.325968	   0.000000; % NG
	2	 0.0	 0.0	 3	   0.000000	  14.016818	   0.000000; % NG
	2	 0.0	 0.0	 3	   0.000000	  36.596808	   0.000000; % NG
	2	 0.0	 0.0	 3	   0.000000	  30.251545	   0.000000; % NG
	2	 0.0	 0.0	 3	   0.000000	  62.738660	   0.000000; % PEL
	2	 0.0	 0.0	 3	   0.000000	  39.860505	   0.000000; % NG
	2	 0.0	 0.0	 3	   0.000000	  33.156019	   0.000000; % NG
	2	 0.0	 0.0	 3	   0.000000	  35.367631	   0.000000; % NG
	2	 0.0	 0.0	 3	   0.000000	  31.285403	   0.000000; % NUC
	2	 0.0	 0.0	 3	   0.000000	  23.055608	   0.000000; % COW
	2	 0.0	 0.0	 3	   0.000000	 115.760204	   0.000000; % PEL
	2	 0.0	 0.0	 3	   0.000000	  25.133068	   0.000000; % NG
	2	 0.0	 0.0	 3	   0.000000	   5.784258	   0.000000; % COW
	2	 0.0	 0.0	 3	   0.000000	   7.557856	   0.000000; % COW
	2	 0.0	 0.0	 3	   0.000000	  22.295268	   0.000000; % NUC
	2	 0.0	 0.0	 3	   0.000000	  22.168853	   0.000000; % NG
	2	 0.0	 0.0	 3	   0.000000	  22.568495	   0.000000; % PEL
	2	 0.0	 0.0	 3	   0.000000	  18.176607	   0.000000; % COW
	2	 0.0	 0.0	 3	   0.000000	  20.909096	   0.000000; % NG
	2	 0.0	 0.0	 3	   0.000000	  22.099784	   0.000000; % COW
	2	 0.0	 0.0	 3	   0.000000	  20.652520	   0.000000; % NG
	2	 0.0	 0.0	 3	   0.000000	  30.885807	   0.000000; % COW
	2	 0.0	 0.0	 3	   0.000000	  19.278757	   0.000000; % NG
	2	 0.0	 0.0	 3	   0.000000	  46.754235	   0.000000; % NG
	2	 0.0	 0.0	 3	   0.000000	  31.567138	   0.000000; % COW
	2	 0.0	 0.0	 3	   0.000000	  31.298140	   0.000000; % NG
	2	 0.0	 0.0	 3	   0.000000	  30.637713	   0.000000; % COW
	2	 0.0	 0.0	 3	   0.000000	  38.292757	   0.000000; % NG
	2	 0.0	 0.0	 3	   0.000000	  17.809839	   0.000000; % NG
	2	 0.0	 0.0	 3	   0.000000	  35.054880	   0.000000; % NG
	2	 0.0	 0.0	 3	   0.000000	  17.867485	   0.000000; % SYNC
	2	 0.0	 0.0	 3	   0.000000	  15.860848	   0.000000; % NG
	2	 0.0	 0.0	 3	   0.000000	  15.771301	   0.000000; % COW
	2	 0.0	 0.0	 3	   0.000000	  25.572045	   0.000000; % NUC
	2	 0.0	 0.0	 3	   0.000000	 108.349398	   0.000000; % PEL
	2	 0.0	 0.0	 3	   0.000000	   7.313398	   0.000000; % COW
	2	 0.0	 0.0	 3	   0.000000	  10.055947	   0.000000; % NG
	2	 0.0	 0.0	 3	   0.000000	  27.069051	   0.000000; % SYNC
	2	 0.0	 0.0	 3	   0.000000	 129.259362	   0.000000; % NG
	2	 0.0	 0.0	 3	   0.000000	  13.896074	   0.000000; % SYNC
	2	 0.0	 0.0	 3	   0.000000	  46.444798	   0.000000; % NG
	2	 0.0	 0.0	 3	   0.000000	  35.368173	   0.000000; % COW
	2	 0.0	 0.0	 3	   0.000000	   8.858522	   0.000000; % COW
	2	 0.0	 0.0	 3	   0.000000	  11.312819	   0.000000; % NG
	2	 0.0	 0.0	 3	   0.000000	  28.704584	   0.000000; % NG
	2	 0.0	 0.0	 3	   0.000000	  27.939041	   0.000000; % NUC
	2	 0.0	 0.0	 3	   0.000000	  32.301527	   0.000000; % COW
	2	 0.0	 0.0	 3	   0.000000	  29.727593	   0.000000; % NG
	2	 0.0	 0.0	 3	   0.000000	  97.851404	   0.000000; % NG
	2	 0.0	 0.0	 3	   0.000000	  30.853594	   0.000000; % NG
	2	 0.0	 0.0	 3	   0.000000	  34.267518	   0.000000; % PEL
	2	 0.0	 0.0	 3	   0.000000	  32.330172	   0.000000; % SYNC
	2	 0.0	 0.0	 3	   0.000000	  27.389860	   0.000000; % NG
	2	 0.0	 0.0	 3	   0.000000	  42.363807	   0.000000; % COW
	2	 0.0	 0.0	 3	   0.000000	  35.469484	   0.000000; % NG
	2	 0.0	 0.0	 3	   0.000000	  19.834657	   0.000000; % NG
	2	 0.0	 0.0	 3	   0.000000	   6.733122	   0.000000; % COW
	2	 0.0	 0.0	 3	   0.000000	  37.980462	   0.000000; % COW
	2	 0.0	 0.0	 3	   0.000000	  35.052280	   0.000000; % COW
	2	 0.0	 0.0	 3	   0.000000	  27.236093	   0.000000; % NG
	2	 0.0	 0.0	 3	   0.000000	  21.731964	   0.000000; % NG
	2	 0.0	 0.0	 3	   0.000000	  37.519412	   0.000000; % COW
	2	 0.0	 0.0	 3	   0.000000	  17.770291	   0.000000; % COW
	2	 0.0	 0.0	 3	   0.000000	  19.803437	   0.000000; % NG
	2	 0.0	 0.0	 3	   0.000000	  21.721650	   0.000000; % PEL
	2	 0.0	 0.0	 3	   0.000000	 117.609781	   0.000000; % PEL
	2	 0.0	 0.0	 3	   0.000000	  33.073148	   0.000000; % NG
	2	 0.0	 0.0	 3	   0.000000	  20.769285	   0.000000; % COW
	2	 0.0	 0.0	 3	   0.000000	  19.282484	   0.000000; % NUC
	2	 0.0	 0.0	 3	   0.000000	  57.546543	   0.000000; % COW
	2	 0.0	 0.0	 3	   0.000000	  20.412877	   0.000000; % NG
	2	 0.0	 0.0	 3	   0.000000	  29.272721	   0.000000; % COW
	2	 0.0	 0.0	 3	   0.000000	  22.809671	   0.000000; % NG
	2	 0.0	 0.0	 3	   0.000000	  44.454440	   0.000000; % NG
	2	 0.0	 0.0	 3	   0.000000	  36.547352	   0.000000; % COW
	2	 0.0	 0.0	 3	   0.000000	  36.651844	   0.000000; % COW
	2	 0.0	 0.0	 3	   0.000000	  24.064945	   0.000000; % COW
	2	 0.0	 0.0	 3	   0.000000	  29.889236	   0.000000; % COW
	2	 0.0	 0.0	 3	   0.000000	  27.995576	   0.000000; % NG
	2	 0.0	 0.0	 3	   0.000000	  19.958470	   0.000000; % NG
	2	 0.0	 0.0	 3	   0.000000	  12.208096	   0.000000; % COW
	2	 0.0	 0.0	 3	   0.000000	  34.557393	   0.000000; % COW
	2	 0.0	 0.0	 3	   0.000000	  51.723795	   0.000000; % COW
	2	 0.0	 0.0	 3	   0.000000	  43.384640	   0.000000; % NG
	2	 0.0	 0.0	 3	   0.000000	  31.188814	   0.000000; % NG
	2	 0.0	 0.0	 3	   0.000000	  23.590276	   0.000000; % NG
	2	 0.0	 0.0	 3	   0.000000	  40.374446	   0.000000; % COW
	2	 0.0	 0.0	 3	   0.000000	  54.112308	   0.000000; % COW
	2	 0.0	 0.0	 3	   0.000000	  11.809591	   0.000000; % NG
	2	 0.0	 0.0	 3	   0.000000	  28.889109	   0.000000; % COW
	2	 0.0	 0.0	 3	   0.000000	  22.786739	   0.000000; % NG
	2	 0.0	 0.0	 3	   0.000000	  35.514751	   0.000000; % COW
	2	 0.0	 0.0	 3	   0.000000	  34.227207	   0.000000; % COW
	2	 0.0	 0.0	 3	   0.000000	  25.676397	   0.000000; % PEL
	2	 0.0	 0.0	 3	   0.000000	  19.513954	   0.000000; % NG
	2	 0.0	 0.0	 3	   0.000000	  18.282341	   0.000000; % COW
	2	 0.0	 0.0	 3	   0.000000	  40.243993	   0.000000; % NG
	2	 0.0	 0.0	 3	   0.000000	  33.757817	   0.000000; % NG
	2	 0.0	 0.0	 3	   0.000000	  20.302912	   0.000000; % COW
	2	 0.0	 0.0	 3	   0.000000	  24.969144	   0.000000; % NG
	2	 0.0	 0.0	 3	   0.000000	  14.333446	   0.000000; % NG
	2	 0.0	 0.0	 3	   0.000000	  21.622306	   0.000000; % NG
	2	 0.0	 0.0	 3	   0.000000	  25.097854	   0.000000; % NG
	2	 0.0	 0.0	 3	   0.000000	  28.287736	   0.000000; % NG
	2	 0.0	 0.0	 3	   0.000000	  31.094528	   0.000000; % NG
	2	 0.0	 0.0	 3	   0.000000	  17.174469	   0.000000; % NG
	2	 0.0	 0.0	 3	   0.000000	  16.769063	   0.000000; % NG
	2	 0.0	 0.0	 3	   0.000000	   7.339046	   0.000000; % COW
	2	 0.0	 0.0	 3	   0.000000	  27.607326	   0.000000; % COW
	2	 0.0	 0.0	 3	   0.000000	  31.721585	   0.000000; % COW
	2	 0.0	 0.0	 3	   0.000000	  29.668915	   0.000000; % COW
	2	 0.0	 0.0	 3	   0.000000	  46.758357	   0.000000; % NG
	2	 0.0	 0.0	 3	   0.000000	  41.825286	   0.000000; % NG
	2	 0.0	 0.0	 3	   0.000000	  47.646661	   0.000000; % COW
	2	 0.0	 0.0	 3	   0.000000	  32.067232	   0.000000; % COW
	2	 0.0	 0.0	 3	   0.000000	  19.970659	   0.000000; % NUC
	2	 0.0	 0.0	 3	   0.000000	  16.921934	   0.000000; % NG
	2	 0.0	 0.0	 3	   0.000000	  51.600653	   0.000000; % COW
	2	 0.0	 0.0	 3	   0.000000	  36.376379	   0.000000; % NUC
	2	 0.0	 0.0	 3	   0.000000	  19.029629	   0.000000; % COW
	2	 0.0	 0.0	 3	   0.000000	  34.308365	   0.000000; % NG
	2	 0.0	 0.0	 3	   0.000000	  25.592384	   0.000000; % COW
	2	 0.0	 0.0	 3	   0.000000	  42.166446	   0.000000; % NG
	2	 0.0	 0.0	 3	   0.000000	  15.631872	   0.000000; % COW
	2	 0.0	 0.0	 3	   0.000000	 117.318042	   0.000000; % COW
	2	 0.0	 0.0	 3	   0.000000	  28.823604	   0.000000; % NG
	2	 0.0	 0.0	 3	   0.000000	 115.595784	   0.000000; % NG
	2	 0.0	 0.0	 3	   0.000000	  37.828949	   0.000000; % SYNC
	2	 0.0	 0.0	 3	   0.000000	  32.966792	   0.000000; % PEL
	2	 0.0	 0.0	 3	   0.000000	  33.786891	   0.000000; % NG
	2	 0.0	 0.0	 3	   0.000000	  44.897676	   0.000000; % PEL
	2	 0.0	 0.0	 3	   0.000000	  29.317995	   0.000000; % NG
	2	 0.0	 0.0	 3	   0.000000	  26.388353	   0.000000; % COW
	2	 0.0	 0.0	 3	   0.000000	  52.747682	   0.000000; % NG
	2	 0.0	 0.0	 3	   0.000000	  29.910533	   0.000000; % COW
	2	 0.0	 0.0	 3	   0.000000	  27.291461	   0.000000; % NG
	2	 0.0	 0.0	 3	   0.000000	  43.666185	   0.000000; % NG
	2	 0.0	 0.0	 3	   0.000000	 109.786992	   0.000000; % COW
	2	 0.0	 0.0	 3	   0.000000	  27.144391	   0.000000; % COW
	2	 0.0	 0.0	 3	   0.000000	  46.513908	   0.000000; % COW
	2	 0.0	 0.0	 3	   0.000000	  23.995910	   0.000000; % PEL
	2	 0.0	 0.0	 3	   0.000000	  39.130245	   0.000000; % PEL
	2	 0.0	 0.0	 3	   0.000000	  19.092327	   0.000000; % NG
	2	 0.0	 0.0	 3	   0.000000	  39.920229	   0.000000; % NG
	2	 0.0	 0.0	 3	   0.000000	  35.214411	   0.000000; % COW
	2	 0.0	 0.0	 3	   0.000000	  27.360129	   0.000000; % NG
	2	 0.0	 0.0	 3	   0.000000	  43.605840	   0.000000; % NG
	2	 0.0	 0.0	 3	   0.000000	  42.601319	   0.000000; % COW
	2	 0.0	 0.0	 3	   0.000000	  30.162113	   0.000000; % COW
	2	 0.0	 0.0	 3	   0.000000	  26.943738	   0.000000; % COW
	2	 0.0	 0.0	 3	   0.000000	  41.885950	   0.000000; % NG
	2	 0.0	 0.0	 3	   0.000000	  30.568533	   0.000000; % NG
	2	 0.0	 0.0	 3	   0.000000	  28.464531	   0.000000; % COW
	2	 0.0	 0.0	 3	   0.000000	  12.699122	   0.000000; % PEL
	2	 0.0	 0.0	 3	   0.000000	  41.589241	   0.000000; % NG
	2	 0.0	 0.0	 3	   0.000000	  61.010324	   0.000000; % COW
	2	 0.0	 0.0	 3	   0.000000	  28.863182	   0.000000; % NG
	2	 0.0	 0.0	 3	   0.000000	  20.344902	   0.000000; % NG
	2	 0.0	 0.0	 3	   0.000000	  50.380987	   0.000000; % COW
	2	 0.0	 0.0	 3	   0.000000	  32.694497	   0.000000; % NUC
	2	 0.0	 0.0	 3	   0.000000	  40.352738	   0.000000; % SYNC
	2	 0.0	 0.0	 3	   0.000000	  17.157455	   0.000000; % NUC
	2	 0.0	 0.0	 3	   0.000000	  24.945828	   0.000000; % NG
	2	 0.0	 0.0	 3	   0.000000	  18.065550	   0.000000; % NG
	2	 0.0	 0.0	 3	   0.000000	  13.460222	   0.000000; % SYNC
	2	 0.0	 0.0	 3	   0.000000	  30.347023	   0.000000; % NG
	2	 0.0	 0.0	 3	   0.000000	  50.260292	   0.000000; % NG
...
];

%% branch data
%	fbus	tbus	r	x	b	rateA	rateB	rateC	ratio	angle	status	angmin	angmax
mpc.branch = [
	5147	 3097	 0.0006	 0.00616	 0.0	 823.0	 5104.0	 5104.0	 0.0	 0.0	 1	 -30.0	 30.0;
	5147	 8763	 0.0005	 0.0074	 0.0	 921.0	 4259.0	 4259.0	 0.0	 0.0	 1	 -30.0	 30.0;
	427	 5425	 7e-05	 0.00057	 0.0	 1711.0	 55004.0	 55004.0	 0.0	 0.0	 1	 -30.0	 30.0;
	427	 4704	 6e-05	 0.00056	 0.0	 1514.0	 56085.0	 56085.0	 0.0	 0.0	 1	 -30.0	 30.0;
	5960	 7431	 0.003349	 0.01656	 0.0	 1870.0	 1870.0	 1870.0	 0.0	 0.0	 1	 -30.0	 30.0;
	5960	 3186	 0.003409	 0.016211	 0.0	 1907.0	 1907.0	 1907.0	 0.0	 0.0	 1	 -30.0	 30.0;
	4481	 7431	 0.003479	 0.01586	 0.0	 1946.0	 1946.0	 1946.0	 0.0	 0.0	 1	 -30.0	 30.0;
	4481	 3186	 0.003099	 0.017969	 0.0	 1733.0	 1733.0	 1733.0	 0.0	 0.0	 1	 -30.0	 30.0;
	5205	 7833	 0.00236	 0.01418	 0.0	 553.0	 2198.0	 2198.0	 0.0	 0.0	 1	 -30.0	 30.0;
	5205	 7770	 0.002169	 0.015909	 0.0	 514.0	 1968.0	 1968.0	 0.0	 0.0	 1	 -30.0	 30.0;
	5773	 6542	 0.00014	 0.0012	 0.0	 26146.0	 26146.0	 26146.0	 0.0	 0.0	 1	 -30.0	 30.0;
	5773	 7840	 0.000211	 0.001539	 0.0	 20335.0	 20335.0	 20335.0	 0.0	 0.0	 1	 -30.0	 30.0;
	5214	 6542	 0.000401	 0.004901	 0.0	 6424.0	 6424.0	 6424.0	 0.0	 0.0	 1	 -30.0	 30.0;
	5214	 7840	 0.000219	 0.00151	 0.0	 533.0	 20703.0	 20703.0	 0.0	 0.0	 1	 -30.0	 30.0;
	2971	 6069	 0.00052	 0.00407	 0.0	 1481.0	 7699.0	 7699.0	 0.0	 0.0	 1	 -30.0	 30.0;
	2971	 3445	 0.00034	 0.00502	 0.0	 1843.0	 6278.0	 6278.0	 0.0	 0.0	 1	 -30.0	 30.0;
	7561	 6069	 0.00065	 0.00698	 0.0	 1711.0	 4506.0	 4506.0	 0.0	 0.0	 1	 -30.0	 30.0;
	7561	 8825	 0.00059	 0.00806	 0.0	 1678.0	 3909.0	 3909.0	 0.0	 0.0	 1	 -30.0	 30.0;
	7556	 7058	 0.00374	 0.02095	 0.0	 800.0	 1485.0	 1485.0	 0.0	 0.0	 1	 -30.0	 30.0;
	7556	 4324	 0.00511	 0.019461	 0.0	 800.0	 1570.0	 1570.0	 0.0	 0.0	 1	 -30.0	 30.0;
	132	 2962	 0.00064	 0.00715	 0.0	 1481.0	 4401.0	 4401.0	 0.0	 0.0	 1	 -30.0	 30.0;
	132	 4393	 0.00089	 0.00712	 0.0	 1283.0	 4403.0	 4403.0	 0.0	 0.0	 1	 -30.0	 30.0;
	5044	 693	 0.00048	 0.00555	 0.0	 987.0	 5671.0	 5671.0	 0.0	 0.0	 1	 -30.0	 30.0;
	5044	 7860	 0.00047	 0.00566	 0.0	 1086.0	 5562.0	 5562.0	 0.0	 0.0	 1	 -30.0	 30.0;
	6883	 693	 0.00046	 0.00524	 0.0	 1053.0	 6006.0	 6006.0	 0.0	 0.0	 1	 -30.0	 30.0;
	6883	 7860	 0.00052	 0.00514	 0.0	 1053.0	 6115.0	 6115.0	 0.0	 0.0	 1	 -30.0	 30.0;
	6494	 4945	 0.00029	 0.00298	 0.0	 1613.0	 10550.0	 10550.0	 0.0	 0.0	 1	 -30.0	 30.0;
	6494	 6080	 0.0003	 0.00291	 0.0	 1514.0	 10798.0	 10798.0	 0.0	 0.0	 1	 -30.0	 30.0;
	7146	 7388	 0.00042	 0.02666	 0.0	 1185.0	 1185.0	 1185.0	 0.0	 0.0	 1	 -30.0	 30.0;
	4735	 5239	 0.00058	 0.00534	 0.0	 1876.0	 5881.0	 5881.0	 0.0	 0.0	 1	 -30.0	 30.0;
	4735	 3145	 0.00054	 0.00589	 0.0	 1843.0	 5341.0	 5341.0	 0.0	 0.0	 1	 -30.0	 30.0;
	3615	 8731	 0.00036	 0.00485	 0.0	 6495.0	 6495.0	 6495.0	 0.0	 0.0	 1	 -30.0	 30.0;
	3615	 6246	 0.00042	 0.00415	 0.0	 7573.0	 7573.0	 7573.0	 0.0	 0.0	 1	 -30.0	 30.0;
	2549	 7829	 0.003349	 0.02445	 0.0	 553.0	 1280.0	 1280.0	 0.0	 0.0	 1	 -30.0	 30.0;
	2549	 4951	 0.003281	 0.02493	 0.0	 553.0	 1257.0	 1257.0	 0.0	 0.0	 1	 -30.0	 30.0;
	7004	 3370	 0.0	 0.00046	 0.0	 757.0	 68669.0	 68669.0	 0.0	 0.0	 1	 -30.0	 30.0;
	8381	 4795	 0.00053	 0.00587	 0.0	 1777.0	 5360.0	 5360.0	 0.0	 0.0	 1	 -30.0	 30.0;
	8381	 5562	 0.00055	 0.00666	 0.0	 1711.0	 4727.0	 4727.0	 0.0	 0.0	 1	 -30.0	 30.0;
	3409	 1716	 0.00051	 0.00614	 0.0	 5127.0	 5127.0	 5127.0	 0.0	 0.0	 1	 -30.0	 30.0;
	3409	 6246	 0.00043	 0.00406	 0.0	 7737.0	 7737.0	 7737.0	 0.0	 0.0	 1	 -30.0	 30.0;
	1000	 6145	 0.002211	 0.014419	 0.0	 438.0	 2166.0	 2166.0	 0.0	 0.0	 1	 -30.0	 30.0;
	1000	 3186	 0.002169	 0.013349	 0.0	 457.0	 2336.0	 2336.0	 0.0	 0.0	 1	 -30.0	 30.0;
	6060	 5289	 0.00033	 0.00101	 0.0	 823.0	 29729.0	 29729.0	 0.0	 0.0	 1	 -30.0	 30.0;
	7965	 5289	 0.00028	 0.00104	 0.0	 757.0	 29329.0	 29329.0	 0.0	 0.0	 1	 -30.0	 30.0;
	4363	 4507	 0.00057	 0.0071	 0.0	 1613.0	 4435.0	 4435.0	 0.0	 0.0	 1	 -30.0	 30.0;
	4363	 6246	 0.00057	 0.00697	 0.0	 1613.0	 4517.0	 4517.0	 0.0	 0.0	 1	 -30.0	 30.0;
	425	 7526	 0.0001	 0.00119	 0.0	 1810.0	 26451.0	 26451.0	 0.0	 0.0	 1	 -30.0	 30.0;
	425	 5674	 0.0001	 0.0013	 0.0	 1613.0	 24227.0	 24227.0	 0.0	 0.0	 1	 -30.0	 30.0;
	4799	 8581	 9e-05	 0.00121	 0.0	 1514.0	 26034.0	 26034.0	 0.0	 0.0	 1	 -30.0	 30.0;
	4799	 4337	 0.0001	 0.00134	 0.0	 1251.0	 23508.0	 23508.0	 0.0	 0.0	 1	 -30.0	 30.0;
	4968	 2154	 0.00039	 0.00474	 0.0	 1843.0	 6642.0	 6642.0	 0.0	 0.0	 1	 -30.0	 30.0;
	4968	 1747	 0.00045	 0.00467	 0.0	 1448.0	 6733.0	 6733.0	 0.0	 0.0	 1	 -30.0	 30.0;
	7699	 2154	 0.00052	 0.00567	 0.0	 1645.0	 5548.0	 5548.0	 0.0	 0.0	 1	 -30.0	 30.0;
	7699	 1689	 0.00054	 0.00667	 0.0	 1316.0	 4721.0	 4721.0	 0.0	 0.0	 1	 -30.0	 30.0;
	3097	 659	 0.00073	 0.00905	 0.0	 1185.0	 3480.0	 3480.0	 0.0	 0.0	 1	 -30.0	 30.0;
	9024	 4929	 0.00192	 0.02296	 0.0	 889.0	 1371.0	 1371.0	 0.0	 0.0	 1	 -30.0	 30.0;
	1815	 6542	 0.01431	 0.05899	 0.0	 521.0	 521.0	 521.0	 0.0	 0.0	 1	 -30.0	 30.0;
	6542	 1445	 0.02607	 0.07168	 0.0	 415.0	 415.0	 415.0	 0.0	 0.0	 1	 -30.0	 30.0;
	6069	 6833	 0.00054	 0.00465	 0.0	 1580.0	 6748.0	 6748.0	 0.0	 0.0	 1	 -30.0	 30.0;
	6069	 2268	 0.00126	 0.01124	 0.0	 1613.0	 2793.0	 2793.0	 0.0	 0.0	 1	 -30.0	 30.0;
	6069	 7180	 0.00048	 0.00527	 0.0	 1547.0	 5970.0	 5970.0	 0.0	 0.0	 1	 -30.0	 30.0;
	6069	 6293	 0.00082	 0.00938	 0.0	 1580.0	 3355.0	 3355.0	 0.0	 0.0	 1	 -30.0	 30.0;
	1968	 9192	 0.00028	 0.003502	 0.0	 8992.0	 8992.0	 8992.0	 0.0	 0.0	 1	 -30.0	 30.0;
	1968	 3493	 0.691467	 4.414711	 0.0	 8.0	 8.0	 8.0	 0.0	 0.0	 1	 -30.0	 30.0;
	1968	 955	 0.02004	 0.0916	 0.0	 337.0	 337.0	 337.0	 0.0	 0.0	 1	 -30.0	 30.0;
	1968	 228	 0.841911	 4.768444	 0.0	 7.0	 7.0	 7.0	 0.0	 0.0	 1	 -30.0	 30.0;
	1968	 6826	 0.026	 0.08948	 0.0	 339.0	 339.0	 339.0	 0.0	 0.0	 1	 -30.0	 30.0;
	1968	 8964	 0.002631	 0.011889	 0.0	 299.0	 2595.0	 2595.0	 0.0	 0.0	 1	 -30.0	 30.0;
	1968	 5776	 0.7232	 1.944	 0.0	 16.0	 16.0	 16.0	 0.0	 0.0	 1	 -30.0	 30.0;
	9192	 955	 0.156169	 0.546756	 0.0	 56.0	 56.0	 56.0	 0.0	 0.0	 1	 -30.0	 30.0;
	9192	 6826	 0.168809	 0.580622	 0.0	 53.0	 53.0	 53.0	 0.0	 0.0	 1	 -30.0	 30.0;
	9192	 8964	 0.019222	 0.068209	 0.0	 446.0	 446.0	 446.0	 0.0	 0.0	 1	 -30.0	 30.0;
	8574	 1616	 0.00039	 0.00386	 0.0	 1415.0	 8142.0	 8142.0	 0.0	 0.0	 1	 -30.0	 30.0;
	8574	 1163	 0.00096	 0.01138	 0.0	 1448.0	 2766.0	 2766.0	 0.0	 0.0	 1	 -30.0	 30.0;
	8574	 9064	 0.00037	 0.00325	 0.0	 1415.0	 9657.0	 9657.0	 0.0	 0.0	 1	 -30.0	 30.0;
	8574	 8921	 0.00029	 0.00339	 0.0	 1580.0	 9284.0	 9284.0	 0.0	 0.0	 1	 -30.0	 30.0;
	3493	 2299	 0.009458	 0.158871	 0.0	 199.0	 199.0	 199.0	 0.0	 0.0	 1	 -30.0	 30.0;
	2299	 4423	 0.0	 0.000222	 0.0	 142286.0	 142286.0	 142286.0	 0.0	 0.0	 1	 -30.0	 30.0;
	6826	 2299	 0.312951	 7.130667	 0.0	 5.0	 5.0	 5.0	 0.0	 0.0	 1	 -30.0	 30.0;
	7563	 2299	 0.247649	 1.075911	 0.0	 29.0	 29.0	 29.0	 0.0	 0.0	 1	 -30.0	 30.0;
	4427	 2299	 0.06056	 0.18612	 0.0	 162.0	 162.0	 162.0	 0.0	 0.0	 1	 -30.0	 30.0;
	8335	 2299	 2.142489	 4.347733	 0.0	 7.0	 7.0	 7.0	 0.0	 0.0	 1	 -30.0	 30.0;
	5155	 2299	 0.07132	 1.068889	 0.0	 30.0	 30.0	 30.0	 0.0	 0.0	 1	 -30.0	 30.0;
	271	 2299	 0.02268	 0.08652	 0.0	 354.0	 354.0	 354.0	 0.0	 0.0	 1	 -30.0	 30.0;
	2449	 2299	 2.007778	 4.494222	 0.0	 7.0	 7.0	 7.0	 0.0	 0.0	 1	 -30.0	 30.0;
	4665	 2299	 0.006178	 0.028938	 0.0	 1068.0	 1068.0	 1068.0	 0.0	 0.0	 1	 -30.0	 30.0;
	4495	 2299	 0.027711	 0.260951	 0.0	 121.0	 121.0	 121.0	 0.0	 0.0	 1	 -30.0	 30.0;
	3493	 5587	 0.0	 0.000222	 0.0	 299.0	 142286.0	 142286.0	 0.0	 0.0	 1	 -30.0	 30.0;
	4586	 3493	 0.00692	 0.337378	 0.0	 94.0	 94.0	 94.0	 0.0	 0.0	 1	 -30.0	 30.0;
	228	 3493	 0.025991	 0.10048	 0.0	 305.0	 305.0	 305.0	 0.0	 0.0	 1	 -30.0	 30.0;
	6826	 3493	 0.083711	 0.8648	 0.0	 37.0	 37.0	 37.0	 0.0	 0.0	 1	 -30.0	 30.0;
	7563	 3493	 0.447378	 1.862089	 0.0	 17.0	 17.0	 17.0	 0.0	 0.0	 1	 -30.0	 30.0;
	4427	 3493	 0.062169	 0.153191	 0.0	 192.0	 192.0	 192.0	 0.0	 0.0	 1	 -30.0	 30.0;
	8335	 3493	 2.492533	 4.725778	 0.0	 6.0	 6.0	 6.0	 0.0	 0.0	 1	 -30.0	 30.0;
	5155	 3493	 0.020271	 0.08244	 0.0	 373.0	 373.0	 373.0	 0.0	 0.0	 1	 -30.0	 30.0;
	271	 3493	 0.11416	 1.777556	 0.0	 18.0	 18.0	 18.0	 0.0	 0.0	 1	 -30.0	 30.0;
	5776	 3493	 0.574978	 2.992578	 0.0	 11.0	 11.0	 11.0	 0.0	 0.0	 1	 -30.0	 30.0;
	2449	 3493	 1.887067	 4.964444	 0.0	 6.0	 6.0	 6.0	 0.0	 0.0	 1	 -30.0	 30.0;
	4665	 3493	 0.250778	 0.817422	 0.0	 37.0	 37.0	 37.0	 0.0	 0.0	 1	 -30.0	 30.0;
	4495	 3493	 0.007049	 0.029609	 0.0	 1038.0	 1038.0	 1038.0	 0.0	 0.0	 1	 -30.0	 30.0;
	5587	 4586	 0.003049	 0.020218	 0.0	 1545.0	 1545.0	 1545.0	 0.0	 0.0	 1	 -30.0	 30.0;
	4423	 4586	 0.002911	 0.020262	 0.0	 1544.0	 1544.0	 1544.0	 0.0	 0.0	 1	 -30.0	 30.0;
	4929	 2870	 4e-05	 0.00041	 0.0	 757.0	 76679.0	 76679.0	 0.0	 0.0	 1	 -30.0	 30.0;
	4929	 659	 0.00087	 0.01087	 0.0	 1283.0	 2897.0	 2897.0	 0.0	 0.0	 1	 -30.0	 30.0;
	4929	 1037	 4e-05	 0.00046	 0.0	 757.0	 68410.0	 68410.0	 0.0	 0.0	 1	 -30.0	 30.0;
	4929	 659	 0.00095	 0.00924	 0.0	 1481.0	 3401.0	 3401.0	 0.0	 0.0	 1	 -30.0	 30.0;
	1815	 5210	 0.528017	 2.636157	 0.0	 12.0	 12.0	 12.0	 0.0	 0.0	 1	 -30.0	 30.0;
	1815	 1445	 0.032031	 0.128659	 0.0	 239.0	 239.0	 239.0	 0.0	 0.0	 1	 -30.0	 30.0;
	1616	 7762	 0.00044	 0.0032	 0.0	 1645.0	 9780.0	 9780.0	 0.0	 0.0	 1	 -30.0	 30.0;
	1616	 2520	 0.00046	 0.00489	 0.0	 1711.0	 6432.0	 6432.0	 0.0	 0.0	 1	 -30.0	 30.0;
	9064	 7762	 0.0003	 0.00352	 0.0	 1580.0	 8942.0	 8942.0	 0.0	 0.0	 1	 -30.0	 30.0;
	9064	 89	 0.00051	 0.00454	 0.0	 1645.0	 6915.0	 6915.0	 0.0	 0.0	 1	 -30.0	 30.0;
	1317	 659	 0.00068	 0.00746	 0.0	 1613.0	 4217.0	 4217.0	 0.0	 0.0	 1	 -30.0	 30.0;
	1317	 8605	 0.00093	 0.01022	 0.0	 1744.0	 3079.0	 3079.0	 0.0	 0.0	 1	 -30.0	 30.0;
	8605	 1367	 4e-05	 0.0004	 0.0	 1481.0	 78577.0	 78577.0	 0.0	 0.0	 1	 -30.0	 30.0;
	8605	 8921	 0.00078	 0.00698	 0.0	 1744.0	 4498.0	 4498.0	 0.0	 0.0	 1	 -30.0	 30.0;
	1163	 1676	 4e-05	 0.00043	 0.0	 1580.0	 73144.0	 73144.0	 0.0	 0.0	 1	 -30.0	 30.0;
	1163	 7051	 0.00025	 0.00309	 0.0	 1678.0	 10190.0	 10190.0	 0.0	 0.0	 1	 -30.0	 30.0;
	913	 7762	 0.00047	 0.00538	 0.0	 1613.0	 5849.0	 5849.0	 0.0	 0.0	 1	 -30.0	 30.0;
	2107	 7762	 0.00046	 0.00548	 0.0	 1744.0	 5744.0	 5744.0	 0.0	 0.0	 1	 -30.0	 30.0;
	2107	 5996	 0.00016	 0.00173	 0.0	 1843.0	 18181.0	 18181.0	 0.0	 0.0	 1	 -30.0	 30.0;
	2107	 6293	 0.00166	 0.01471	 0.0	 1744.0	 2134.0	 2134.0	 0.0	 0.0	 1	 -30.0	 30.0;
	913	 7762	 0.00051	 0.00512	 0.0	 1777.0	 6140.0	 6140.0	 0.0	 0.0	 1	 -30.0	 30.0;
	6704	 8921	 0.00021	 0.00248	 0.0	 1514.0	 12692.0	 12692.0	 0.0	 0.0	 1	 -30.0	 30.0;
	228	 4586	 0.004391	 0.021689	 0.0	 286.0	 1428.0	 1428.0	 0.0	 0.0	 1	 -30.0	 30.0;
	2441	 6293	 0.00024	 0.00289	 0.0	 1645.0	 10893.0	 10893.0	 0.0	 0.0	 1	 -30.0	 30.0;
	955	 3506	 0.0	 0.000222	 0.0	 338.0	 142286.0	 142286.0	 0.0	 0.0	 1	 -30.0	 30.0;
	955	 8964	 0.01788	 0.100471	 0.0	 310.0	 310.0	 310.0	 0.0	 0.0	 1	 -30.0	 30.0;
	3506	 2908	 0.006458	 0.039982	 0.0	 780.0	 780.0	 780.0	 0.0	 0.0	 1	 -30.0	 30.0;
	228	 6826	 0.106151	 0.993333	 0.0	 32.0	 32.0	 32.0	 0.0	 0.0	 1	 -30.0	 30.0;
	228	 5776	 0.699778	 3.232311	 0.0	 10.0	 10.0	 10.0	 0.0	 0.0	 1	 -30.0	 30.0;
	8964	 6826	 0.257058	 0.43592	 0.0	 63.0	 63.0	 63.0	 0.0	 0.0	 1	 -30.0	 30.0;
	5776	 6826	 0.002769	 0.011449	 0.0	 2682.0	 2682.0	 2682.0	 0.0	 0.0	 1	 -30.0	 30.0;
	659	 8329	 0.00034	 0.00305	 0.0	 1580.0	 10293.0	 10293.0	 0.0	 0.0	 1	 -30.0	 30.0;
	659	 7051	 0.00123	 0.01255	 0.0	 1843.0	 2505.0	 2505.0	 0.0	 0.0	 1	 -30.0	 30.0;
	659	 9239	 6e-05	 0.00065	 0.0	 1415.0	 48391.0	 48391.0	 0.0	 0.0	 1	 -30.0	 30.0;
	659	 7960	 6e-05	 0.00063	 0.0	 1514.0	 49913.0	 49913.0	 0.0	 0.0	 1	 -30.0	 30.0;
	659	 6233	 6e-05	 0.00055	 0.0	 1744.0	 57093.0	 57093.0	 0.0	 0.0	 1	 -30.0	 30.0;
	659	 5416	 0.00079	 0.00968	 0.0	 1349.0	 3253.0	 3253.0	 0.0	 0.0	 1	 -30.0	 30.0;
	659	 6798	 7e-05	 0.00079	 0.0	 39828.0	 39828.0	 39828.0	 0.0	 0.0	 1	 -30.0	 30.0;
	792	 3279	 0.0	 0.000222	 0.0	 377.0	 142286.0	 142286.0	 0.0	 0.0	 1	 -30.0	 30.0;
	7563	 792	 2.064178	 7.545333	 0.0	 5.0	 5.0	 5.0	 0.0	 0.0	 1	 -30.0	 30.0;
	7279	 792	 0.153711	 0.482489	 0.0	 63.0	 63.0	 63.0	 0.0	 0.0	 1	 -30.0	 30.0;
	8335	 792	 0.015809	 0.12368	 0.0	 254.0	 254.0	 254.0	 0.0	 0.0	 1	 -30.0	 30.0;
	2449	 792	 0.057978	 0.363422	 0.0	 86.0	 86.0	 86.0	 0.0	 0.0	 1	 -30.0	 30.0;
	4665	 792	 0.6932	 2.196889	 0.0	 14.0	 14.0	 14.0	 0.0	 0.0	 1	 -30.0	 30.0;
	4495	 792	 0.560356	 2.395867	 0.0	 13.0	 13.0	 13.0	 0.0	 0.0	 1	 -30.0	 30.0;
	5416	 2267	 0.00024	 0.00213	 0.0	 757.0	 14737.0	 14737.0	 0.0	 0.0	 1	 -30.0	 30.0;
	5416	 7637	 0.00093	 0.00884	 0.0	 1283.0	 3554.0	 3554.0	 0.0	 0.0	 1	 -30.0	 30.0;
	8964	 2168	 0.0	 0.000222	 0.0	 312.0	 142286.0	 142286.0	 0.0	 0.0	 1	 -30.0	 30.0;
	3659	 5996	 0.00018	 0.00204	 0.0	 1777.0	 15425.0	 15425.0	 0.0	 0.0	 1	 -30.0	 30.0;
	5762	 5996	 0.00018	 0.00208	 0.0	 757.0	 15130.0	 15130.0	 0.0	 0.0	 1	 -30.0	 30.0;
	3242	 5097	 0.0	 0.000222	 0.0	 142286.0	 142286.0	 142286.0	 0.0	 0.0	 1	 -30.0	 30.0;
	7563	 3242	 0.02068	 0.093391	 0.0	 331.0	 331.0	 331.0	 0.0	 0.0	 1	 -30.0	 30.0;
	4427	 3242	 0.777778	 7.408	 0.0	 5.0	 5.0	 5.0	 0.0	 0.0	 1	 -30.0	 30.0;
	3242	 7279	 0.00884	 0.07292	 0.0	 431.0	 431.0	 431.0	 0.0	 0.0	 1	 -30.0	 30.0;
	271	 3242	 0.131671	 8.295556	 0.0	 4.0	 4.0	 4.0	 0.0	 0.0	 1	 -30.0	 30.0;
	3242	 1611	 0.082462	 0.568222	 0.0	 56.0	 56.0	 56.0	 0.0	 0.0	 1	 -30.0	 30.0;
	5097	 1611	 0.0042	 0.02624	 0.0	 1189.0	 1189.0	 1189.0	 0.0	 0.0	 1	 -30.0	 30.0;
	8181	 8179	 0.00031	 0.00317	 0.0	 1251.0	 9918.0	 9918.0	 0.0	 0.0	 1	 -30.0	 30.0;
	8181	 7762	 0.00043	 0.00498	 0.0	 1481.0	 6320.0	 6320.0	 0.0	 0.0	 1	 -30.0	 30.0;
	9025	 7762	 0.00042	 0.00508	 0.0	 1711.0	 6197.0	 6197.0	 0.0	 0.0	 1	 -30.0	 30.0;
	7563	 4427	 0.110671	 0.773067	 0.0	 41.0	 41.0	 41.0	 0.0	 0.0	 1	 -30.0	 30.0;
	7563	 7279	 0.00912	 0.037609	 0.0	 817.0	 817.0	 817.0	 0.0	 0.0	 1	 -30.0	 30.0;
	7563	 8335	 0.098049	 0.598711	 0.0	 53.0	 53.0	 53.0	 0.0	 0.0	 1	 -30.0	 30.0;
	7563	 5155	 0.019031	 1.160356	 0.0	 28.0	 28.0	 28.0	 0.0	 0.0	 1	 -30.0	 30.0;
	7563	 271	 0.024071	 0.915733	 0.0	 35.0	 35.0	 35.0	 0.0	 0.0	 1	 -30.0	 30.0;
	2449	 7563	 1.484267	 4.479111	 0.0	 7.0	 7.0	 7.0	 0.0	 0.0	 1	 -30.0	 30.0;
	4665	 7563	 0.011578	 0.063271	 0.0	 492.0	 492.0	 492.0	 0.0	 0.0	 1	 -30.0	 30.0;
	4495	 7563	 0.654889	 1.839111	 0.0	 17.0	 17.0	 17.0	 0.0	 0.0	 1	 -30.0	 30.0;
	7563	 1611	 0.022049	 0.10076	 0.0	 307.0	 307.0	 307.0	 0.0	 0.0	 1	 -30.0	 30.0;
	4427	 7279	 0.459867	 2.604711	 0.0	 12.0	 12.0	 12.0	 0.0	 0.0	 1	 -30.0	 30.0;
	4427	 8335	 2.320222	 6.088	 0.0	 5.0	 5.0	 5.0	 0.0	 0.0	 1	 -30.0	 30.0;
	4427	 5155	 0.006369	 0.048089	 0.0	 652.0	 652.0	 652.0	 0.0	 0.0	 1	 -30.0	 30.0;
	4427	 271	 0.006631	 0.0432	 0.0	 723.0	 723.0	 723.0	 0.0	 0.0	 1	 -30.0	 30.0;
	2449	 4427	 2.567244	 6.767111	 0.0	 5.0	 5.0	 5.0	 0.0	 0.0	 1	 -30.0	 30.0;
	4665	 4427	 0.309889	 1.214178	 0.0	 26.0	 26.0	 26.0	 0.0	 0.0	 1	 -30.0	 30.0;
...